simulator lang=spectre insensitive=yes
subckt D_FLIP_FLOP CLK CLR DATA NQ Q VDD GND N0119 N0120 N0121
RN0119 N0119 11 resistor r=0
RN0120 N0120 10 resistor r=0
RN0121 N0121 8 resistor r=0
\+27 (Q NQ vdd vdd) ami06P w=3e-06 l=6e-07 as=4.5e-12 ad=4.5e-12 \
ps=6e-06 pd=6e-06 m=1 region=sat
\+26 (11 NQ vdd vdd) ami06P w=3e-06 l=6e-07 as=4.5e-12 ad=4.5e-12 \
ps=6e-06 pd=6e-06 m=1 region=sat
\+23 (NQ 9 13 vdd) ami06P w=3e-06 l=6e-07 as=2.7e-12 ad=4.5e-12 \
ps=1.8e-06 pd=6e-06 m=1 region=sat
\+22 (13 10 vdd vdd) ami06P w=3e-06 l=6e-07 as=2.7e-12 ad=2.7e-12 \
ps=1.8e-06 pd=1.8e-06 m=1 region=sat
\+21 (vdd CLR 13 vdd) ami06P w=3e-06 l=6e-07 as=4.5e-12 ad=2.7e-12 \
ps=6e-06 pd=1.8e-06 m=1 region=sat
\+20 (10 8 vdd vdd) ami06P w=3e-06 l=6e-07 as=4.5e-12 ad=4.5e-12 \
ps=6e-06 pd=6e-06 m=1 region=sat
\+19 (vdd 10 20 vdd) ami06P w=3e-06 l=6e-07 as=2.25e-12 ad=4.95e-12 \
ps=1.5e-06 pd=6.3e-06 m=1 region=sat
\+18 (20 9 8 vdd) ami06P w=3e-06 l=6e-07 as=4.95e-12 ad=2.25e-12 \
ps=6.3e-06 pd=1.5e-06 m=1 region=sat
\+17 (9 CLK vdd vdd) ami06P w=3e-06 l=6e-07 as=4.5e-12 ad=4.5e-12 \
ps=6e-06 pd=6e-06 m=1 region=sat
\+16 (8 CLK 12 vdd) ami06P w=3e-06 l=6e-07 as=2.7e-12 ad=4.5e-12 \
ps=1.8e-06 pd=6e-06 m=1 region=sat
\+15 (12 DATA vdd vdd) ami06P w=3e-06 l=6e-07 as=2.7e-12 ad=2.7e-12 \
ps=1.8e-06 pd=1.8e-06 m=1 region=sat
\+14 (vdd CLR 12 vdd) ami06P w=3e-06 l=6e-07 as=4.5e-12 ad=2.7e-12 \
ps=6e-06 pd=1.8e-06 m=1 region=sat
\+74 (gnd 11) capacitor c=9.0396e-16 m=1
\+73 (gnd 10) capacitor c=1.3957e-15 m=1
\+72 (gnd 9) capacitor c=3.1806e-15 m=1
\+71 (gnd 8) capacitor c=9.0396e-16 m=1
\+70 (NQ gnd) capacitor c=1.80792e-15 m=1
\+69 (CLR gnd) capacitor c=1.77444e-15 m=1
\+68 (CLK gnd) capacitor c=4.23522e-15 m=1
\+67 (vdd 11) capacitor c=2.7621e-16 m=1
\+66 (vdd 10) capacitor c=4.62443e-16 m=1
\+65 (vdd 9) capacitor c=3.348e-16 m=1
\+64 (vdd 8) capacitor c=1.5066e-16 m=1
\+63 (vdd NQ) capacitor c=3.0132e-16 m=1
\+62 (vdd CLR) capacitor c=2.04228e-15 m=1
\+61 (vdd CLK) capacitor c=5.6079e-16 m=1
\+60 (DATA gnd) capacitor c=8.5374e-16 m=1
\+59 (DATA vdd) capacitor c=1.5066e-16 m=1
\+58 (10 13) capacitor c=2.4585e-16 m=1
\+57 (9 10) capacitor c=5.6415e-16 m=1
\+56 (8 10) capacitor c=8.3415e-16 m=1
\+55 (8 9) capacitor c=1.10415e-15 m=1
\+54 (gnd 11) capacitor c=2.27766e-15 m=1
\+53 (gnd 10) capacitor c=4.55448e-15 m=1
\+52 (gnd 9) capacitor c=2.89542e-15 m=1
\+51 (gnd 8) capacitor c=7.32729e-15 m=1
\+50 (Q gnd) capacitor c=2.69544e-15 m=1
\+49 (NQ 18) capacitor c=1.215e-16 m=1
\+48 (NQ 11) capacitor c=8.1e-16 m=1
\+47 (NQ 9) capacitor c=1.05585e-15 m=1
\+46 (NQ gnd) capacitor c=5.9229e-15 m=1
\+45 (CLR 13) capacitor c=4.0005e-16 m=1
\+44 (CLR 12) capacitor c=2.4585e-16 m=1
\+43 (CLR 10) capacitor c=2.7e-16 m=1
\+42 (CLR 9) capacitor c=2.9415e-16 m=1
\+41 (CLK 9) capacitor c=7.8585e-16 m=1
\+40 (CLK 8) capacitor c=8.3415e-16 m=1
\+39 (CLK gnd) capacitor c=1.28328e-15 m=1
\+38 (CLK NQ) capacitor c=5.6415e-16 m=1
\+37 (vdd 13) capacitor c=1.07502e-15 m=1
\+36 (vdd 12) capacitor c=1.13418e-15 m=1
\+35 (vdd 11) capacitor c=1.39836e-15 m=1
\+34 (vdd 10) capacitor c=1.36941e-15 m=1
\+33 (vdd 9) capacitor c=4.044e-16 m=1
\+32 (vdd 8) capacitor c=1.01304e-15 m=1
\+31 (vdd Q) capacitor c=5.0652e-16 m=1
\+30 (vdd NQ) capacitor c=1.04262e-15 m=1
\+29 (vdd CLR) capacitor c=1.08e-15 m=1
\+28 (DATA 12) capacitor c=2.4585e-16 m=1
\+13 (Q NQ gnd gnd) ami06N w=1.5e-06 l=6e-07 as=2.25e-12 ad=2.25e-12 \
ps=4.5e-06 pd=4.5e-06 m=1 region=sat
\+12 (11 NQ gnd gnd) ami06N w=1.5e-06 l=6e-07 as=2.25e-12 ad=2.25e-12 \
ps=4.5e-06 pd=4.5e-06 m=1 region=sat
\+6 (10 8 gnd gnd) ami06N w=1.5e-06 l=6e-07 as=2.25e-12 ad=2.25e-12 \
ps=4.5e-06 pd=4.5e-06 m=1 region=sat
\+3 (9 CLK gnd gnd) ami06N w=1.5e-06 l=6e-07 as=2.25e-12 ad=2.25e-12 \
ps=4.5e-06 pd=4.5e-06 m=1 region=sat
\+11 (gnd 11 19 gnd) ami06N w=3e-06 l=6e-07 as=2.475e-12 ad=4.95e-12 \
ps=1.65e-06 pd=6.3e-06 m=1 region=sat
\+10 (19 9 NQ gnd) ami06N w=3e-06 l=6e-07 as=4.5e-12 ad=2.475e-12 \
ps=6e-06 pd=1.65e-06 m=1 region=sat
\+9 (NQ CLK 18 gnd) ami06N w=3e-06 l=6e-07 as=2.7e-12 ad=4.5e-12 \
ps=1.8e-06 pd=6e-06 m=1 region=sat
\+8 (18 10 17 gnd) ami06N w=3e-06 l=6e-07 as=2.7e-12 ad=2.7e-12 \
ps=1.8e-06 pd=1.8e-06 m=1 region=sat
\+7 (17 CLR gnd gnd) ami06N w=3e-06 l=6e-07 as=4.5e-12 ad=2.7e-12 ps=6e-06 \
pd=1.8e-06 m=1 region=sat
\+5 (gnd 10 16 gnd) ami06N w=3e-06 l=6e-07 as=2.475e-12 ad=4.95e-12 \
ps=1.65e-06 pd=6.3e-06 m=1 region=sat
\+4 (16 CLK 8 gnd) ami06N w=3e-06 l=6e-07 as=4.5e-12 ad=2.475e-12 \
ps=6e-06 pd=1.65e-06 m=1 region=sat
\+2 (8 9 15 gnd) ami06N w=3e-06 l=6e-07 as=2.7e-12 ad=4.5e-12 ps=1.8e-06 \
pd=6e-06 m=1 region=sat
\+1 (15 DATA 14 gnd) ami06N w=3e-06 l=6e-07 as=2.7e-12 ad=2.7e-12 \
ps=1.8e-06 pd=1.8e-06 m=1 region=sat
\+0 (14 CLR gnd gnd) ami06N w=3e-06 l=6e-07 as=4.5e-12 ad=2.7e-12 ps=6e-06 \
pd=1.8e-06 m=1 region=sat
\+25 (vdd 11 21 vdd) ami06P w=2.85e-06 l=6e-07 as=2.1375e-12 \
ad=4.7025e-12 ps=1.5e-06 pd=6.15e-06 m=1 region=sat
\+24 (21 CLK NQ vdd) ami06P w=2.85e-06 l=6e-07 as=4.7025e-12 \
ad=2.1375e-12 ps=6.15e-06 pd=1.5e-06 m=1 region=sat
ends D_FLIP_FLOP
