simulator lang=spectre insensitive=yes
subckt BUFX4 A Y VDD GND
\+3 (Y 5 vdd vdd) ami06P w=1.2e-05 l=6e-07 as=9.45e-12 ad=1.8e-11 \
ps=6.3e-06 pd=1.5e-05 m=1 region=sat
\+13 (gnd 5) capacitor c=7.3656e-16 m=1
\+12 (A gnd) capacitor c=7.3656e-16 m=1
\+11 (vdd 5) capacitor c=2.1762e-16 m=1
\+10 (vdd A) capacitor c=8.37e-16 m=1
\+9 (gnd 5) capacitor c=3.5496e-16 m=1
\+8 (Y gnd) capacitor c=6.84e-16 m=1
\+7 (A 5) capacitor c=5.4e-16 m=1
\+6 (A gnd) capacitor c=2.6988e-16 m=1
\+5 (vdd 5) capacitor c=1.95228e-15 m=1
\+4 (vdd Y) capacitor c=5.0652e-16 m=1
\+1 (Y 5 gnd gnd) ami06N w=6e-06 l=6e-07 as=4.725e-12 ad=9e-12 ps=4.05e-06 \
pd=9e-06 m=1 region=sat
\+0 (gnd A 5 gnd) ami06N w=1.5e-06 l=6e-07 as=2.25e-12 ad=4.725e-12 \
ps=4.5e-06 pd=4.05e-06 m=1 region=sat
\+2 (vdd A 5 vdd) ami06P w=3e-06 l=6e-07 as=4.5e-12 ad=9.45e-12 \
ps=6e-06 pd=6.3e-06 m=1 region=sat
ends BUFX4
