simulator lang=spectre insensitive=yes
subckt TIEHI Y GND VDD
\+1 (Y 4 vdd vdd) ami06P w=3e-06 l=6e-07 as=4.5e-12 ad=4.5e-12 \
ps=6e-06 pd=6e-06 m=1 region=sat
\+5 (gnd 4) capacitor c=6.5286e-16 m=1
\+4 (vdd 4) capacitor c=4.4361e-16 m=1
\+3 (gnd 4) capacitor c=2.7636e-16 m=1
\+2 (vdd Y) capacitor c=9.2064e-16 m=1
\+0 (4 4 gnd gnd) ami06N w=1.5e-06 l=6e-07 as=2.25e-12 ad=2.25e-12 \
ps=4.5e-06 pd=4.5e-06 m=1 region=sat
ends TIEHI
