// Generated for: spectre
// Generated on: Nov 12 06:18:21 2014
// Design library name: ExperimentalCells
// Design cell name: XOR_TEST
// Design view name: schematic
simulator lang=spectre
global 0 vdd!
