// Generated for: spectre
// Generated on: Nov  7 17:13:06 2014
// Design library name: ExperimentalCells
// Design cell name: TestAsyncYSD
// Design view name: config
simulator lang=spectre
global 0 vdd!
