*SPEF "IEEE 1481-1998"
*DESIGN "controller"
*DATE "Thu Nov 20 21:14:58 2014"
*VENDOR "Cadence Design Systems, Inc."
*PROGRAM "Encounter"
*VERSION "13.13-s017_1"
*DESIGN_FLOW "COUPLING C" "PIN_CAP NONE" "NAME_SCOPE LOCAL"
*DIVIDER /
*DELIMITER :
*BUS_DELIMITER []
*T_UNIT 1 NS
*C_UNIT 1 PF
*R_UNIT 1 OHM
*L_UNIT 1 HENRY

// MMMC spef file for corner 'typical_rc'

*NAME_MAP

*1 FE_OFN0_pcsource_0_
*2 aluop[0]
*3 aluop[1]
*4 alusrca
*5 alusrcb[0]
*6 alusrcb[1]
*7 clk
*8 clk__L1_N0
*9 clk__L2_N0
*10 clk__L2_N1
*11 iord
*12 irwrite[0]
*13 irwrite[1]
*14 irwrite[2]
*15 irwrite[3]
*16 memread
*17 memtoreg
*18 memwrite
*19 n1
*20 n103
*21 n105
*22 n106
*23 n107
*24 n108
*25 n109
*26 n111
*27 n112
*28 n113
*29 n114
*30 n115
*31 n116
*32 n117
*33 n118
*34 n119
*35 n120
*36 n121
*37 n122
*38 n123
*39 n124
*40 n125
*41 n127
*42 n128
*43 n129
*44 n130
*45 n131
*46 n132
*47 n134
*48 n135
*49 n136
*50 n137
*51 n138
*52 n139
*53 n140
*54 n141
*55 n143
*56 n145
*57 n148
*58 n149
*59 n151
*60 n153
*61 n155
*62 n157
*63 n158
*64 n159
*65 n160
*66 n161
*67 n162
*68 n163
*69 n164
*70 n165
*71 n166
*72 n167
*73 n168
*74 n169
*75 n170
*76 n172
*77 n173
*78 n174
*79 n175
*80 n176
*81 n177
*82 n178
*83 n179
*84 n180
*85 n181
*86 n182
*87 n184
*88 n185
*89 n186
*90 n187
*91 n188
*92 n189
*93 n190
*94 n191
*95 n192
*96 n193
*97 n194
*98 n195
*99 n196
*100 n197
*101 n198
*102 n199
*103 n20
*104 n200
*105 n201
*106 n202
*107 n203
*108 n204
*109 n205
*110 n207
*111 n208
*112 n209
*113 n210
*114 n3
*115 n7
*116 op[0]
*117 op[1]
*118 op[2]
*119 op[3]
*120 op[4]
*121 op[5]
*122 pcen
*123 pcsource[0]
*124 pcsource[1]
*125 regdst
*126 regwrite
*127 reset
*128 state[0]
*129 state[1]
*130 state[2]
*131 state[3]
*132 zero
*133 clk__L2_I1
*134 clk__L2_I0
*135 clk__L1_I0
*136 FE_OFC0_pcsource_0_
*137 state_reg_1_
*138 state_reg_3_
*139 state_reg_2_
*140 state_reg_0_
*141 U120
*142 U121
*143 U122
*144 U123
*145 U124
*146 U127
*147 U128
*148 U129
*149 U130
*150 U131
*151 U133
*152 U135
*153 U136
*154 U137
*155 U138
*156 U139
*157 U141
*158 U142
*159 U144
*160 U145
*161 U147
*162 U148
*163 U149
*164 U151
*165 U152
*166 U153
*167 U154
*168 U155
*169 U156
*170 U157
*171 U158
*172 U159
*173 U160
*174 U161
*175 U162
*176 U163
*177 U164
*178 U166
*179 U167
*180 U168
*181 U169
*182 U170
*183 U171
*184 U172
*185 U173
*186 U174
*187 U175
*188 U176
*189 U178
*190 U181
*191 U182
*192 U183
*193 U184
*194 U185
*195 U186
*196 U187
*197 U188
*198 U189
*199 U190
*200 U191
*201 U192
*202 U193
*203 U194
*204 U196
*205 U197
*206 U198
*207 U199
*208 U201
*209 U202
*210 U203
*211 U204
*212 U205
*213 U206
*214 U208
*215 U209
*216 U210
*217 U211
*218 U212
*219 U213
*220 U214
*221 U215
*222 U216
*223 U217
*224 U218
*225 U219
*226 U220
*227 U221
*228 U222
*229 U223
*230 U224
*231 U225
*232 U226
*233 U227
*234 U228
*235 U229
*236 U230
*237 U231
*238 U232
*239 U233
*240 U234
*241 U235
*242 U236
*243 U237
*244 U238
*245 U239
*246 U240
*247 U241
*248 U242
*249 U243
*250 U244
*251 U245
*252 U246
*253 U247
*254 U248


*PORTS

*7 I *C 286.8 0
*127 I *C 157.2 0
*121 I *C 68.4 225
*120 I *C 54 0
*119 I *C 63.6 225
*118 I *C 0 85.5
*117 I *C 73.2 0
*116 I *C 49.2 0
*132 I *C 332.4 225
*16 O *C 234 225
*18 O *C 306 225
*4 O *C 147.6 225
*17 O *C 400.8 145.5
*11 O *C 291.6 225
*122 O *C 246 225
*126 O *C 400.8 139.5
*125 O *C 286.8 225
*124 O *C 400.8 163.5
*123 O *C 253.2 225
*6 O *C 130.8 225
*5 O *C 229.2 225
*3 O *C 186 225
*2 O *C 222 225
*15 O *C 195.6 225
*14 O *C 162 0
*13 O *C 190.8 225
*12 O *C 193.2 0


*D_NET *40 0.00090518

*CONN
*I *179:Y O *C 358 37 *L 0 *D NAND2X1
*I *178:A I *C 353 38 *L 0.00857 *D INVX1

*CAP
1 *179:Y 0.00045259
2 *178:A 0.00045259

*RES
1 *178:A *179:Y 0.481667
*END

*D_NET *59 0.00299892

*CONN
*I *225:B I *C 118 40 *L 0.00962 *D NOR2X1
*I *181:Y O *C 102 34 *L 0 *D INVX1

*CAP
1 *181:Y 0.00149946
2 *225:B 0.00149946

*RES
1 *181:Y *225:B 1.58667
*END

*D_NET *42 0.00128524

*CONN
*I *200:Y O *C 178 34 *L 0 *D INVX1
*I *199:B I *C 171 40 *L 0.0123 *D NAND2X1

*CAP
1 *200:Y 0.00064262
2 *199:B 0.00064262

*RES
1 *199:B *200:Y 0.68
*END

*D_NET *32 0.00177236

*CONN
*I *183:Y O *C 73 37 *L 0 *D NAND2X1
*I *182:A I *C 78 38 *L 0.00857 *D INVX1

*CAP
1 *183:Y 0.00045519
2 *182:A 0.00043099
3 *32:2 0.00088618

*RES
1 *182:A *32:2 0.453333
2 *183:Y *32:2 0.481667
*END

*D_NET *45 0.0004316

*CONN
*I *220:Y O *C 56 34 *L 0 *D INVX1
*I *218:A I *C 58 46 *L 0.0113 *D NAND2X1

*CAP
1 *220:Y 0.0002158
2 *218:A 0.0002158

*RES
1 *220:Y *218:A 0.226667
*END

*D_NET *113 0.00274944

*CONN
*I *254:Y O *C 92 46 *L 0 *D AOI22X1
*I *181:A I *C 99 38 *L 0.00857 *D INVX1

*CAP
1 *254:Y 0.00043159
2 *181:A 0.00024277
3 *113:2 0.00113195
4 *113:3 0.00094313

*RES
1 *113:3 *181:A 0.255
2 *113:3 *113:2 0.736667
3 *254:Y *113:2 0.453333
*END

*D_NET *43 0.00042842

*CONN
*I *217:Y O *C 61 79 *L 0 *D INVX1
*I *215:A I *C 58 67 *L 0.0113 *D NAND2X1

*CAP
1 *217:Y 0.00021421
2 *215:A 0.00021421

*RES
1 *215:A *217:Y 0.226667
*END

*D_NET *98 0.00139556

*CONN
*I *252:Y O *C 87 79 *L 0 *D NOR2X1
*I *185:B I *C 92 73 *L 0.0123 *D NAND2X1

*CAP
1 *252:Y 0.00042841
2 *185:B 0.00026937
3 *98:2 0.00069778

*RES
1 *98:2 *185:B 0.283333
2 *252:Y *98:2 0.453333
*END

*D_NET *94 0.00589018

*CONN
*I *248:Y O *C 238 79 *L 0 *D NOR2X1
*I *172:A I *C 267 67 *L 0.0113 *D NAND2X1

*CAP
1 *248:Y 0.00117626
2 *172:A 0.00149946
3 *94:2 0.00144563
4 *94:3 0.00176883

*RES
1 *94:3 *172:A 1.58667
2 *94:3 *94:2 0.283333
3 *248:Y *94:2 1.13333
*END

*D_NET *93 0.0039851

*CONN
*I *250:Y O *C 291 79 *L 0 *D NOR2X1
*I *172:B I *C 272 73 *L 0.0123 *D NAND2X1

*CAP
1 *250:Y 0.00042841
2 *172:B 0.00129477
3 *93:2 0.00069778
4 *93:3 0.00156414

*RES
1 *172:B *93:3 1.36
2 *93:2 *93:3 0.283333
3 *93:2 *250:Y 0.453333
*END

*D_NET *78 0.0012372

*CONN
*I *243:Y O *C 70 103 *L 0 *D NOR2X1
*I *214:A I *C 75 107 *L 0.00857 *D INVX1

*CAP
1 *243:Y 0.00021421
2 *214:A 0.00024277
3 *78:2 0.00037583
4 *78:3 0.00040439

*RES
1 *78:3 *214:A 0.255
2 *78:3 *78:2 0.17
3 *243:Y *78:2 0.226667
*END

*D_NET *56 0.00042842

*CONN
*I *211:Y O *C 241 103 *L 0 *D INVX1
*I *210:B I *C 238 109 *L 0.0123 *D NAND2X1

*CAP
1 *211:Y 0.00021421
2 *210:B 0.00021421

*RES
1 *210:B *211:Y 0.226667
*END

*D_NET *57 0.00241534

*CONN
*I *207:Y O *C 327 103 *L 0 *D INVX1
*I *206:B I *C 325 109 *L 0.0123 *D NAND2X1
*I *203:B I *C 332 109 *L 0.0123 *D NAND2X1

*CAP
1 *206:B 0.00026937
2 *207:Y 0.00066893
3 *203:B 0.00026937
4 *57:3 0.00048358
5 *57:4 0.00072409

*RES
1 *203:B *57:4 0.283333
2 *207:Y *57:4 0.453333
3 *206:B *57:3 0.283333
4 *57:3 *207:Y 0.226667
*END

*D_NET *48 0.00140192

*CONN
*I *148:Y O *C 327 145 *L 0 *D NAND2X1
*I *146:A I *C 332 136 *L 0.0113 *D NAND2X1

*CAP
1 *148:Y 0.00043159
2 *146:A 0.00026937
3 *48:2 0.00070096

*RES
1 *48:2 *146:A 0.283333
2 *148:Y *48:2 0.453333
*END

*D_NET *80 0.00139556

*CONN
*I *244:Y O *C 94 148 *L 0 *D NOR2X1
*I *208:A I *C 90 136 *L 0.0113 *D NAND2X1

*CAP
1 *244:Y 0.00042841
2 *208:A 0.00026937
3 *80:2 0.00069778

*RES
1 *208:A *80:2 0.283333
2 *80:2 *244:Y 0.453333
*END

*D_NET *66 0.0039661

*CONN
*I *237:Y O *C 169 148 *L 0 *D NOR2X1
*I *151:A I *C 150 136 *L 0.0113 *D NAND2X1

*CAP
1 *237:Y 0.00085684
2 *151:A 0.00085684
3 *66:2 0.00112621
4 *66:3 0.00112621

*RES
1 *151:A *66:3 0.906667
2 *66:3 *66:2 0.283333
3 *66:2 *237:Y 0.906667
*END

*D_NET *64 0.0004316

*CONN
*I *231:B I *C 212 142 *L 0.00962 *D NOR2X1
*I *192:Y O *C 214 148 *L 0 *D INVX1

*CAP
1 *192:Y 0.0002158
2 *231:B 0.0002158

*RES
1 *231:B *192:Y 0.226667
*END

*D_NET *47 0.0004316

*CONN
*I *145:Y O *C 361 148 *L 0 *D INVX1
*I *144:B I *C 358 142 *L 0.0123 *D NAND2X1

*CAP
1 *145:Y 0.0002158
2 *144:B 0.0002158

*RES
1 *144:B *145:Y 0.226667
*END

*D_NET *1 0.00120302

*CONN
*I *235:Y O *C 298 148 *L 0 *D NOR2X1
*I *136:A I *C 304 144 *L 0.0104 *D BUFX4

*CAP
1 *235:Y 0.00021924
2 *136:A 0.00030146
3 *1:2 0.00030005
4 *1:3 0.00038227

*RES
1 *1:3 *136:A 0.311667
2 *1:3 *1:2 0.085
3 *235:Y *1:2 0.226667
*END

*D_NET *60 0.00042842

*CONN
*I *227:B I *C 99 178 *L 0.00962 *D NOR2X1
*I *177:Y O *C 102 172 *L 0 *D INVX1

*CAP
1 *177:Y 0.00021421
2 *227:B 0.00021421

*RES
1 *227:B *177:Y 0.226667
*END

*D_NET *28 0.00042842

*CONN
*I *169:Y O *C 147 172 *L 0 *D INVX1
*I *168:B I *C 145 178 *L 0.0123 *D NAND2X1

*CAP
1 *169:Y 0.00021421
2 *168:B 0.00021421

*RES
1 *168:B *169:Y 0.226667
*END

*D_NET *68 0.00042842

*CONN
*I *166:Y O *C 234 172 *L 0 *D INVX1
*I *165:B I *C 236 178 *L 0.0123 *D NAND2X1

*CAP
1 *166:Y 0.00021421
2 *165:B 0.00021421

*RES
1 *166:Y *165:B 0.226667
*END

*D_NET *55 0.00171368

*CONN
*I *143:Y O *C 303 172 *L 0 *D INVX1
*I *142:B I *C 294 178 *L 0.0123 *D NAND2X1

*CAP
1 *143:Y 0.00085684
2 *142:B 0.00085684

*RES
1 *142:B *143:Y 0.906667
*END

*D_NET *52 0.00042842

*CONN
*I *156:Y O *C 342 172 *L 0 *D INVX1
*I *155:B I *C 339 178 *L 0.0123 *D NAND2X1

*CAP
1 *156:Y 0.00021421
2 *155:B 0.00021421

*RES
1 *155:B *156:Y 0.226667
*END

*D_NET *27 0.0022

*CONN
*I *171:Y O *C 128 175 *L 0 *D NAND2X1
*I *168:A I *C 140 184 *L 0.0113 *D NAND2X1

*CAP
1 *171:Y 0.0011
2 *168:A 0.0011

*RES
1 *171:Y *168:A 1.13333
*END

*D_NET *105 0.0004316

*CONN
*I *167:Y O *C 169 172 *L 0 *D INVX1
*I *164:A I *C 171 184 *L 0.0113 *D NAND2X1

*CAP
1 *167:Y 0.0002158
2 *164:A 0.0002158

*RES
1 *167:Y *164:A 0.226667
*END

*D_NET *51 0.0014367

*CONN
*I *157:Y O *C 330 175 *L 0 *D NAND2X1
*I *155:A I *C 334 184 *L 0.0113 *D NAND2X1

*CAP
1 *157:Y 0.00044898
2 *155:A 0.00026937
3 *51:2 0.00071835

*RES
1 *155:A *51:2 0.283333
2 *157:Y *51:2 0.453333
*END

*D_NET *26 0.00207912

*CONN
*I *163:Y O *C 140 76 *L 0 *D NAND2X1
*I *162:A I *C 133 75 *L 0.00857 *D INVX1

*CAP
1 *163:Y 0.00021421
2 *162:A 0.00043099
3 *26:2 0.00021421
4 *26:3 0.00039436
5 *26:4 0.00039436
6 *26:5 0.00043099

*RES
1 *26:5 *162:A 0.453333
2 *26:4 *26:5 0.9
3 *26:4 *26:3 0.425
4 *26:2 *26:3 0.9
5 *26:2 *163:Y 0.226667
*END

*D_NET *35 0.0036511

*CONN
*I *174:Y O *C 54 145 *L 0 *D NAND2X1
*I *173:A I *C 73 144 *L 0.00857 *D INVX1

*CAP
1 *174:Y 0.00021924
2 *173:A 0.00010775
3 *35:2 0.00021924
4 *35:3 0.00149856
5 *35:4 0.00149856
6 *35:5 0.00010775

*RES
1 *173:A *35:5 0.113333
2 *35:4 *35:5 0.9
3 *35:3 *35:4 1.615
4 *35:2 *35:3 0.9
5 *174:Y *35:2 0.226667
*END

*D_NET *38 0.00171862

*CONN
*I *180:Y O *C 346 37 *L 0 *D NAND2X1
*I *179:A I *C 356 46 *L 0.0113 *D NAND2X1

*CAP
1 *179:A 0.00022286
2 *180:Y 0.0002158
3 *38:2 0.00022286
4 *38:3 0.0002158
5 *38:4 0.00042065
6 *38:5 0.00042065

*RES
1 *38:2 *179:A 0.226667
2 *38:5 *38:2 0.9
3 *38:4 *38:5 0.453333
4 *38:3 *38:4 0.9
5 *180:Y *38:3 0.226667
*END

*D_NET *49 0.00253484

*CONN
*I *147:Y O *C 322 148 *L 0 *D INVX1
*I *146:B I *C 337 142 *L 0.0123 *D NAND2X1

*CAP
1 *147:Y 0.0002158
2 *49:2 0.0002158
3 *49:3 0.00105162
4 *49:4 0.00105162

*RES
1 *49:4 *146:B 0.9
2 *49:3 *49:4 1.13333
3 *49:2 *49:3 0.9
4 *147:Y *49:2 0.226667
*END

*D_NET *54 0.00126972

*CONN
*I *161:Y O *C 186 148 *L 0 *D INVX1
*I *160:A I *C 178 136 *L 0.0113 *D NAND2X1

*CAP
1 *161:Y 0.00021421
2 *54:2 0.00021421
3 *54:3 0.00042065
4 *54:4 0.00042065

*RES
1 *54:4 *160:A 0.9
2 *54:4 *54:3 0.453333
3 *54:2 *54:3 0.9
4 *54:2 *161:Y 0.226667
*END

*D_NET *111 0.00266528

*CONN
*I *226:Y O *C 147 103 *L 0 *D NOR2X1
*I *189:A I *C 135 115 *L 0.0113 *D NAND2X1

*CAP
1 *226:Y 0.00042841
2 *189:A 0.00026937
3 *111:2 0.00042841
4 *111:3 0.00042065
5 *111:4 0.00042065
6 *111:5 0.00021421
7 *111:6 0.00048358

*RES
1 *111:6 *189:A 0.283333
2 *111:6 *111:5 0.226667
3 *111:4 *111:5 0.9
4 *111:4 *111:3 0.453333
5 *111:2 *111:3 0.9
6 *111:2 *226:Y 0.453333
*END

*D_NET *116 0.00806327

*CONN
*P *116 I *C 49 0 *L 0
*I *219:A I *C 49 38 *L 0.00857 *D INVX1

*CAP
1 *116 0.00278073
2 *219:A 0.00024277
3 *116:2 0.00299105
4 *116:3 0.00056393
5 *116:4 0.00052183
6 *116:5 0.00041508
7 *116:2 *120:2 6.835e-05
8 *116 *120:3 6.835e-05
9 *116:2 *120:4 0.00019023
10 *116 *120 0.00019023
11 *116:4 *120:2 1.536e-05
12 *116:3 *120:3 1.536e-05

*RES
1 *116:5 *219:A 0.255
2 *116:4 *116:5 0.9
3 *116:3 *116:4 0.396667
4 *116:3 *116:2 0.226667
5 *116 *116:2 3.21583
*END

*D_NET *34 0.00513646

*CONN
*I *175:Y O *C 51 103 *L 0 *D INVX1
*I *174:B I *C 51 142 *L 0.0123 *D NAND2X1

*CAP
1 *175:Y 0.00028718
2 *174:B 0.00028718
3 *34:2 0.00228105
4 *34:3 0.00228105

*RES
1 *34:3 *174:B 0.9
2 *34:2 *34:3 2.26667
3 *175:Y *34:2 0.9
*END

*D_NET *120 0.00732458

*CONN
*P *120 I *C 54 0 *L 0
*I *220:A I *C 54 38 *L 0.00857 *D INVX1

*CAP
1 *120 0.00204574
2 *220:A 0.00028718
3 *120:2 0.00125684
4 *120:3 0.00111491
5 *120:4 0.00207203
6 *120:2 *116:2 6.835e-05
7 *120:3 *116 6.835e-05
8 *120:4 *116:2 0.00019023
9 *120 *116 0.00019023
10 *120:2 *116:4 1.536e-05
11 *120:3 *116:3 1.536e-05

*RES
1 *120:2 *220:A 0.9
2 *120:3 *120:2 1.24667
3 *120:4 *120:3 0.0283333
4 *120 *120:4 2.36583
*END

*D_NET *37 0.00721109

*CONN
*I *195:Y O *C 56 172 *L 0 *D INVX1
*I *194:B I *C 58 142 *L 0.0123 *D NAND2X1

*CAP
1 *195:Y 0.00028718
2 *194:B 0.0002158
3 *37:2 0.00037854
4 *37:3 0.00278146
5 *37:4 0.00278146
6 *37:5 0.00037854
7 *37:6 0.00038811

*RES
1 *37:6 *194:B 0.226667
2 *37:5 *37:6 0.9
3 *37:4 *37:5 0.226667
4 *37:4 *37:3 2.83333
5 *37:3 *37:2 0.226667
6 *195:Y *37:2 0.9
*END

*D_NET *33 0.00389176

*CONN
*I *176:Y O *C 56 106 *L 0 *D NAND2X1
*I *174:A I *C 56 136 *L 0.0113 *D NAND2X1

*CAP
1 *176:Y 0.00028718
2 *174:A 0.00028718
3 *33:2 0.00135894
4 *33:3 0.00135894
5 *33:2 *108:4 0.00029976
6 *33:3 *108:5 0.00029976

*RES
1 *33:2 *174:A 0.9
2 *33:3 *33:2 1.41667
3 *176:Y *33:3 0.9
*END

*D_NET *87 0.0179473

*CONN
*I *243:B I *C 68 109 *L 0.00962 *D NOR2X1
*I *215:Y O *C 56 76 *L 0 *D NAND2X1
*I *175:A I *C 49 107 *L 0.00857 *D INVX1

*CAP
1 *215:Y 0.00107608
2 *175:A 0.00024277
3 *243:B 0.00064262
4 *87:3 0.00112621
5 *87:4 0.00044168
6 *87:5 0.00313926
7 *87:6 0.00313926
8 *87:7 0.00041508
9 *87:8 0.00039155
10 *87:9 0.00037854
11 *87:10 0.00309071
12 *87:11 0.00304861
13 *87:12 0.00081493

*RES
1 *87:12 *243:B 0.68
2 *87:11 *87:12 0.9
3 *87:7 *175:A 0.255
4 *87:10 *87:11 3.11667
5 *87:6 *87:7 0.9
6 *87:9 *87:10 0.226667
7 *87:5 *87:6 3.23
8 *87:8 *87:9 0.9
9 *87:4 *87:5 0.9
10 *215:Y *87:8 0.226667
11 *87:3 *87:4 0.283333
12 *87:3 *215:Y 0.906667
*END

*D_NET *119 0.0190534

*CONN
*P *119 I *C 63 225 *L 0
*I *245:B I *C 66 181 *L 0.0303 *D XOR2X1
*I *196:A I *C 68 144 *L 0.00857 *D INVX1

*CAP
1 *245:B 0.00071625
2 *119 0.00330709
3 *196:A 0.0002546
4 *119:3 0.00546583
5 *119:4 0.00231299
6 *119:5 0.00063181
7 *119:6 0.00099824
8 *119:7 0.00125499
9 *119:8 0.00148626
10 *119:9 0.00144416
11 *119:10 0.00054943
12 *119:11 0.00063172

*RES
1 *119:11 *196:A 0.255
2 *119:11 *119:10 0.396667
3 *119:9 *119:10 0.9
4 *119:9 *119:8 1.41667
5 *119:7 *245:B 0.68
6 *119:4 *119:8 0.226667
7 *119:7 *119:6 0.566667
8 *119:4 *119:3 2.26667
9 *119:3 *119 3.49917
10 *119:6 *119:5 0.453333
11 *119:5 *119:3 0.9
*END

*D_NET *30 0.00590699

*CONN
*I *186:Y O *C 75 76 *L 0 *D NAND2X1
*I *183:A I *C 70 46 *L 0.0113 *D NAND2X1

*CAP
1 *186:Y 0.00042841
2 *183:A 0.00028718
3 *30:2 0.00060072
4 *30:3 0.00177077
5 *30:4 0.00177077
6 *30:3 *117:6 0.00052457
7 *30:4 *117:7 0.00052457

*RES
1 *30:4 *183:A 0.9
2 *30:4 *30:3 1.98333
3 *30:2 *30:3 0.9
4 *30:2 *186:Y 0.453333
*END

*D_NET *121 0.0186741

*CONN
*P *121 I *C 68 225 *L 0
*I *245:A I *C 63 178 *L 0.0303 *D XOR2X1
*I *227:A I *C 94 184 *L 0.00859 *D NOR2X1
*I *195:A I *C 54 176 *L 0.00857 *D INVX1

*CAP
1 *121 0.00357488
2 *245:A 0.00163599
3 *195:A 0.00024277
4 *227:A 0.00107898
5 *121:4 0.0037852
6 *121:5 0.00073743
7 *121:6 0.00069533
8 *121:7 0.0009071
9 *121:8 0.00044435
10 *121:9 0.00066428
11 *121:10 0.00097107
12 *121:11 0.00050832
13 *121:12 0.00041508
14 *121:13 0.00139558
15 *121:14 0.00161772

*RES
1 *121:12 *195:A 0.255
2 *121:11 *121:12 0.9
3 *121:4 *121 3.7825
4 *121:11 *121:10 0.453333
5 *121:14 *227:A 1.13333
6 *121:4 *121:5 0.226667
7 *121:10 *121:7 0.68
8 *121:13 *121:14 0.566667
9 *121:6 *121:5 0.566667
10 *121:8 *121:7 0.283333
11 *245:A *121:13 0.906667
12 *245:A *121:6 0.9
13 *121:9 *121:8 0.9
14 *121:9 *245:A 0.453333
*END

*D_NET *36 0.00387715

*CONN
*I *228:B I *C 78 142 *L 0.00962 *D NOR2X1
*I *196:Y O *C 70 148 *L 0 *D INVX1
*I *194:A I *C 63 136 *L 0.0113 *D NAND2X1

*CAP
1 *196:Y 0.00086478
2 *194:A 0.00065057
3 *228:B 0.00028718
4 *36:3 0.00038652
5 *36:4 0.0004234
6 *36:5 0.00067583
7 *36:6 0.00058887

*RES
1 *36:6 *228:B 0.9
2 *36:5 *36:6 0.453333
3 *36:4 *36:5 0.283333
4 *36:3 *36:4 0.9
5 *196:Y *36:3 0.226667
6 *194:A *196:Y 0.68
*END

*D_NET *31 0.00636631

*CONN
*I *184:Y O *C 80 79 *L 0 *D INVX1
*I *183:B I *C 75 40 *L 0.0123 *D NAND2X1

*CAP
1 *184:Y 0.0002158
2 *183:B 0.00028718
3 *31:2 0.00038811
4 *31:3 0.00214618
5 *31:4 0.00218828
6 *31:5 0.00037854
7 *31:3 *118:7 6.42e-06
8 *31:4 *118:8 6.42e-06
9 *31:3 *118:9 0.00037469
10 *31:4 *118:10 0.00037469

*RES
1 *31:5 *183:B 0.9
2 *31:5 *31:4 0.226667
3 *31:4 *31:3 2.26667
4 *31:2 *31:3 0.9
5 *31:2 *184:Y 0.226667
*END

*D_NET *79 0.00844783

*CONN
*I *245:Y O *C 73 172 *L 0 *D XOR2X1
*I *208:B I *C 85 142 *L 0.0123 *D NAND2X1

*CAP
1 *245:Y 0.0008413
2 *208:B 0.0002158
3 *79:2 0.00346316
4 *79:3 0.00279008
5 *79:4 0.00038811
6 *79:2 *102:3 0.00037469
7 *79:3 *102:4 0.00037469

*RES
1 *79:4 *208:B 0.226667
2 *79:3 *79:4 0.9
3 *79:3 *79:2 3.11667
4 *245:Y *79:2 0.906667
*END

*D_NET *100 0.00424928

*CONN
*I *185:Y O *C 94 76 *L 0 *D NAND2X1
*I *184:A I *C 82 75 *L 0.00857 *D INVX1

*CAP
1 *185:Y 0.00021421
2 *184:A 0.00025371
3 *100:2 0.00038652
4 *100:3 0.00037854
5 *100:4 0.00047386
6 *100:5 0.00068419
7 *100:6 0.00084233
8 *100:7 0.0005899
9 *100:8 0.00042602

*RES
1 *184:A *100:8 0.255
2 *100:7 *100:8 0.9
3 *100:6 *100:7 0.453333
4 *100:6 *100:5 0.453333
5 *100:4 *100:5 0.283333
6 *100:4 *100:3 0.226667
7 *100:2 *100:3 0.9
8 *100:2 *185:Y 0.226667
*END

*D_NET *99 0.00745931

*CONN
*I *251:Y O *C 94 103 *L 0 *D NOR2X1
*I *185:A I *C 97 67 *L 0.0113 *D NAND2X1

*CAP
1 *251:Y 0.00021924
2 *185:A 0.00028718
3 *99:2 0.00328067
4 *99:3 0.00328067
5 *99:4 0.00039155

*RES
1 *99:3 *185:A 0.9
2 *99:3 *99:2 3.4
3 *99:4 *99:2 0.9
4 *251:Y *99:4 0.226667
*END

*D_NET *61 0.014959

*CONN
*I *244:A I *C 92 136 *L 0.00859 *D NOR2X1
*I *229:B I *C 109 109 *L 0.00962 *D NOR2X1
*I *228:A I *C 82 136 *L 0.00859 *D NOR2X1
*I *214:Y O *C 78 103 *L 0 *D INVX1

*CAP
1 *229:B 0.00111307
2 *244:A 0.00028718
3 *214:Y 0.00044554
4 *228:A 0.00028718
5 *61:4 0.00253796
6 *61:5 0.00068419
7 *61:6 0.00043176
8 *61:7 0.00128538
9 *61:8 0.00301468
10 *61:9 0.00061785
11 *61:10 0.00176255
12 *61:11 0.0024917

*RES
1 *214:Y *61:9 0.453333
2 *61:10 *61:9 0.9
3 *61:7 *229:B 1.13333
4 *61:10 *61:11 1.7
5 *61:11 *228:A 0.9
6 *61:6 *61:7 0.9
7 *61:11 *61:8 0.906667
8 *61:8 *244:A 0.9
9 *61:6 *61:5 0.283333
10 *61:4 *61:8 2.26667
11 *61:4 *61:5 0.453333
*END

*D_NET *90 0.00701663

*CONN
*I *249:A I *C 99 139 *L 0.0234 *D OAI22X1
*I *227:Y O *C 97 172 *L 0 *D NOR2X1

*CAP
1 *227:Y 0.00021924
2 *249:A 0.00028718
3 *90:2 0.00039155
4 *90:3 0.00305933
5 *90:4 0.00305933

*RES
1 *90:4 *249:A 0.9
2 *90:4 *90:3 3.11667
3 *90:2 *90:3 0.9
4 *227:Y *90:2 0.226667
*END

*D_NET *102 0.0187485

*CONN
*I *228:Y O *C 80 148 *L 0 *D NOR2X1
*I *177:A I *C 104 176 *L 0.00857 *D INVX1
*I *171:A I *C 126 184 *L 0.0113 *D NAND2X1

*CAP
1 *177:A 0.00023679
2 *228:Y 0.00028718
3 *171:A 0.00172636
4 *102:3 0.00125894
5 *102:4 0.00125894
6 *102:5 0.00199232
7 *102:6 0.00199232
8 *102:7 0.00093715
9 *102:8 0.00263217
10 *102:9 0.00263217
11 *102:10 0.00039517
12 *102:11 0.00264958
13 *102:3 *79:2 0.00037469
14 *102:4 *79:3 0.00037469

*RES
1 *102:4 *228:Y 0.9
2 *102:4 *102:3 1.41667
3 *102:8 *102:3 0.9
4 *102:8 *102:9 2.26667
5 *102:6 *102:9 0.9
6 *102:6 *102:5 1.98333
7 *102:10 *102:5 0.9
8 *102:10 *102:11 0.226667
9 *102:11 *171:A 1.81333
10 *177:A *102:7 0.255
11 *102:7 *102:11 0.736667
*END

*D_NET *21 0.00370926

*CONN
*I *188:Y O *C 128 76 *L 0 *D NAND2X1
*I *187:A I *C 121 75 *L 0.00857 *D INVX1

*CAP
1 *188:Y 0.00021421
2 *187:A 0.00024665
3 *21:2 0.00038652
4 *21:3 0.00079919
5 *21:4 0.00105324
6 *21:5 0.00059049
7 *21:6 0.00041896

*RES
1 *21:6 *187:A 0.255
2 *21:5 *21:6 0.9
3 *21:4 *21:5 0.453333
4 *21:4 *21:3 0.68
5 *21:2 *21:3 0.9
6 *21:2 *188:Y 0.226667
*END

*D_NET *112 0.00397308

*CONN
*I *225:A I *C 123 46 *L 0.00859 *D NOR2X1
*I *187:Y O *C 123 79 *L 0 *D INVX1

*CAP
1 *187:Y 0.00028718
2 *225:A 0.00028718
3 *112:2 0.00169936
4 *112:3 0.00169936

*RES
1 *112:3 *225:A 0.9
2 *112:3 *112:2 1.7
3 *187:Y *112:2 0.9
*END

*D_NET *20 0.0109276

*CONN
*I *189:Y O *C 133 106 *L 0 *D NAND2X1
*I *188:A I *C 126 67 *L 0.0113 *D NAND2X1

*CAP
1 *189:Y 0.00046337
2 *188:A 0.00028718
3 *20:2 0.00456035
4 *20:3 0.00460245
5 *20:4 0.00063568
6 *20:5 0.00037854

*RES
1 *20:5 *188:A 0.9
2 *20:5 *20:3 0.226667
3 *20:3 *20:2 4.53333
4 *20:4 *20:2 0.9
5 *20:4 *189:Y 0.453333
*END

*D_NET *22 0.00453743

*CONN
*I *193:Y O *C 121 106 *L 0 *D NAND2X1
*I *190:A I *C 138 115 *L 0.0113 *D NAND2X1

*CAP
1 *193:Y 0.0009467
2 *190:A 0.00028718
3 *22:2 0.00092405
4 *22:3 0.0004613
5 *22:4 0.00111901
6 *22:5 0.00079919

*RES
1 *22:5 *190:A 0.9
2 *22:2 *22:5 0.68
3 *22:3 *22:2 0.283333
4 *22:4 *22:3 0.9
5 *193:Y *22:4 0.906667
*END

*D_NET *6 0.0150476

*CONN
*P *6 O *C 130 225 *L 0
*I *150:Y O *C 130 145 *L 0 *D NAND2X1

*CAP
1 *150:Y 0.00028718
2 *6 0.00366196
3 *6:2 0.00262839
4 *6:3 0.00267049
5 *6:4 0.00068365
6 *6:5 0.00068365
7 *6:6 0.00387228
8 *6:5 *101:4 7.494e-05
9 *6:4 *101:5 7.494e-05
10 *6:3 *101:4 0.00020504
11 *6:2 *101:5 0.00020504

*RES
1 *6:6 *6 4.06583
2 *6:6 *6:5 0.226667
3 *6:4 *6:5 0.566667
4 *6:3 *6:4 0.226667
5 *6:2 *6:3 2.83333
6 *150:Y *6:2 0.9
*END

*D_NET *106 0.00500668

*CONN
*I *253:B I *C 135 40 *L 0.00962 *D NOR2X1
*I *162:Y O *C 135 79 *L 0 *D INVX1

*CAP
1 *162:Y 0.00028718
2 *253:B 0.00028718
3 *106:2 0.00221616
4 *106:3 0.00221616

*RES
1 *106:3 *253:B 0.9
2 *106:3 *106:2 2.26667
3 *162:Y *106:2 0.9
*END

*D_NET *24 0.00271929

*CONN
*I *226:B I *C 145 109 *L 0.00962 *D NOR2X1
*I *190:Y O *C 140 106 *L 0 *D NAND2X1

*CAP
1 *190:Y 0.0002158
2 *226:B 0.00028718
3 *24:2 0.00038811
4 *24:3 0.00037854
5 *24:4 0.00074588
6 *24:5 0.00070378

*RES
1 *24:5 *226:B 0.9
2 *24:5 *24:4 0.566667
3 *24:3 *24:4 0.226667
4 *24:2 *24:3 0.9
5 *190:Y *24:2 0.226667
*END

*D_NET *4 0.0146604

*CONN
*P *4 O *C 147 225 *L 0
*I *151:Y O *C 147 145 *L 0 *D NAND2X1

*CAP
1 *151:Y 0.00028718
2 *4 0.00677277
3 *4:2 0.00694099
4 *4 *3:4 0.00032973
5 *4:2 *3:5 0.00032973

*RES
1 *4:2 *4 7.46583
2 *151:Y *4:2 0.9
*END

*D_NET *14 0.0307503

*CONN
*P *14 O *C 162 0 *L 0
*I *226:A I *C 150 115 *L 0.00859 *D NOR2X1
*I *197:Y O *C 171 103 *L 0 *D INVX1

*CAP
1 *197:Y 0.00194216
2 *226:A 0.00211447
3 *14 8.575e-05
4 *14:3 0.00438472
5 *14:4 0.00442682
6 *14:5 0.0057194
7 *14:6 0.0056773
8 *14:7 0.00161538
9 *14:8 0.00161538
10 *14:9 0.00025397
11 *14:9 *127:4 7.97e-06
12 *14 *127 7.97e-06
13 *14:5 *127:4 2.566e-05
14 *14:6 *127 2.566e-05
15 *14:5 *127:5 7.494e-05
16 *14:6 *127:6 7.494e-05
17 *14:5 *127:6 0.0013489
18 *14:6 *127:7 0.0013489

*RES
1 *14 *14:9 0.0991667
2 *14:8 *14:9 0.9
3 *14:7 *14:8 1.36
4 *14:6 *14:7 0.9
5 *14:6 *14:5 6.8
6 *14:5 *14:4 0.226667
7 *14:4 *14:3 3.96667
8 *226:A *14:3 0.9
9 *226:A *197:Y 2.04
*END

*D_NET *84 0.00454945

*CONN
*I *247:D I *C 166 70 *L 0.0188 *D AOI22X1
*I *199:Y O *C 169 37 *L 0 *D NAND2X1

*CAP
1 *199:Y 0.00028718
2 *247:D 0.00024052
3 *84:2 0.00180446
4 *84:3 0.00180446
5 *84:4 0.00041283

*RES
1 *247:D *84:4 0.226667
2 *84:3 *84:4 0.9
3 *84:2 *84:3 1.7
4 *199:Y *84:2 0.9
*END

*D_NET *25 0.0277664

*CONN
*I *164:Y O *C 174 175 *L 0 *D NAND2X1
*I *163:A I *C 142 67 *L 0.0113 *D NAND2X1

*CAP
1 *164:Y 0.0002158
2 *163:A 0.00028718
3 *25:2 0.00267318
4 *25:3 0.00271528
5 *25:4 0.00038811
6 *25:5 0.0028291
7 *25:6 0.0028712
8 *25:7 0.00508324
9 *25:8 0.00508324
10 *25:9 0.00037854
11 *25:10 0.00243147
12 *25:11 0.00243147
13 *25:12 0.00037854

*RES
1 *25:12 *163:A 0.9
2 *25:12 *25:3 0.226667
3 *25:3 *25:2 2.55
4 *25:11 *25:2 0.9
5 *25:11 *25:10 2.04
6 *25:9 *25:10 0.9
7 *25:9 *25:8 0.226667
8 *25:8 *25:7 4.81667
9 *25:7 *25:6 0.226667
10 *25:6 *25:5 2.83333
11 *25:4 *25:5 0.9
12 *25:4 *164:Y 0.226667
*END

*D_NET *41 0.00640466

*CONN
*I *204:Y O *C 178 79 *L 0 *D INVX1
*I *199:A I *C 166 46 *L 0.0113 *D NAND2X1

*CAP
1 *204:Y 0.00028718
2 *199:A 0.00028718
3 *41:2 0.00186353
4 *41:3 0.00274693
5 *41:4 0.00121984

*RES
1 *41:4 *199:A 0.9
2 *41:4 *41:3 1.13333
3 *41:3 *41:2 1.7
4 *204:Y *41:2 0.9
*END

*D_NET *83 0.0100459

*CONN
*I *246:Y O *C 193 115 *L 0 *D AOI22X1
*I *204:A I *C 180 75 *L 0.00857 *D INVX1

*CAP
1 *246:Y 0.00095852
2 *204:A 0.00024665
3 *83:2 0.00113083
4 *83:3 0.00364545
5 *83:4 0.00364545
6 *83:5 0.00041896

*RES
1 *204:A *83:5 0.255
2 *83:4 *83:5 0.9
3 *83:4 *83:3 3.79667
4 *83:2 *83:3 0.9
5 *83:2 *246:Y 0.906667
*END

*D_NET *13 0.0170747

*CONN
*P *13 O *C 190 225 *L 0
*I *238:Y O *C 195 148 *L 0 *D NOR2X1
*I *161:A I *C 188 144 *L 0.00857 *D INVX1

*CAP
1 *238:Y 0.00127226
2 *13 0.00596255
3 *161:A 0.00072768
4 *13:3 0.00071689
5 *13:4 0.00613077
6 *13 *15 0.00057753
7 *13:4 *15:3 0.00057753
8 *13 *3 0.00046362
9 *13:4 *3:8 0.00046362
10 *13 *3:8 9.113e-05
11 *13:4 *3:9 9.113e-05

*RES
1 *13:4 *13 7.1825
2 *161:A *238:Y 0.708333
3 *13:3 *13:4 0.9
4 *13:3 *238:Y 0.453333
*END

*D_NET *12 0.017746

*CONN
*P *12 O *C 193 0 *L 0
*I *201:Y O *C 205 79 *L 0 *D INVX1
*I *200:A I *C 180 38 *L 0.00857 *D INVX1

*CAP
1 *200:A 0.00024277
2 *201:Y 0.00194216
3 *12 0.00162046
4 *12:3 0.00246789
5 *12:4 0.00399793
6 *12:5 0.00041508
7 *12:6 0.00211447
8 *12:7 0.00248349
9 *12:8 0.00246176

*RES
1 *12 *12:8 1.79917
2 *12:6 *201:Y 2.04
3 *12:7 *12:8 0.906667
4 *12:3 *12:6 0.9
5 *12:7 *12:4 1.81333
6 *12:4 *12:3 2.43667
7 *200:A *12:5 0.255
8 *12:5 *12:4 0.9
*END

*D_NET *63 0.00692804

*CONN
*I *202:Y O *C 212 106 *L 0 *D NAND2X1
*I *201:A I *C 207 75 *L 0.00857 *D INVX1

*CAP
1 *202:Y 0.0002158
2 *201:A 0.00025371
3 *63:2 0.00038811
4 *63:3 0.0028222
5 *63:4 0.0028222
6 *63:5 0.00042602

*RES
1 *201:A *63:5 0.255
2 *63:4 *63:5 0.9
3 *63:4 *63:3 2.94667
4 *63:2 *63:3 0.9
5 *63:2 *202:Y 0.226667
*END

*D_NET *2 0.00648932

*CONN
*P *2 O *C 222 225 *L 0
*I *149:Y O *C 222 172 *L 0 *D BUFX4

*CAP
1 *149:Y 0.00028718
2 *2 0.00289242
3 *2:2 0.00306064
4 *2 *5 0.00012454
5 *2:2 *5:2 0.00012454

*RES
1 *2:2 *2 3.21583
2 *149:Y *2:2 0.9
*END

*D_NET *5 0.0163201

*CONN
*P *5 O *C 229 225 *L 0
*I *152:Y O *C 229 145 *L 0 *D NAND2X1

*CAP
1 *5 0.00348608
2 *152:Y 0.00021924
3 *5:2 0.0036964
4 *5:3 0.00039155
5 *5:4 0.00296655
6 *5:5 0.00300865
7 *5 *16 0.00030415
8 *5:2 *16:2 0.00030415
9 *5 *86:4 2.278e-05
10 *5:2 *86:5 2.278e-05
11 *5:5 *86:4 0.00082433
12 *5:4 *86:5 0.00082433
13 *5 *2 0.00012454
14 *5:2 *2:2 0.00012454

*RES
1 *5:2 *5 4.06583
2 *5:5 *5:2 0.226667
3 *5:4 *5:5 3.4
4 *5:3 *5:4 0.9
5 *5:3 *152:Y 0.226667
*END

*D_NET *16 0.00877411

*CONN
*P *16 O *C 234 225 *L 0
*I *159:Y O *C 226 175 *L 0 *D NAND2X1

*CAP
1 *16 0.00327073
2 *159:Y 0.00043159
3 *16:2 0.00348105
4 *16:3 0.0006039
5 *16:4 0.00037854
6 *16 *5 0.00030415
7 *16:2 *5:2 0.00030415

*RES
1 *16:2 *16 3.7825
2 *16:4 *16:2 0.226667
3 *16:3 *16:4 0.9
4 *159:Y *16:3 0.453333
*END

*D_NET *76 0.0146224

*CONN
*I *222:Y O *C 262 148 *L 0 *D INVX1
*I *221:B I *C 238 142 *L 0.0123 *D NAND2X1
*I *165:A I *C 241 184 *L 0.0113 *D NAND2X1

*CAP
1 *221:B 0.00026937
2 *222:Y 0.00169013
3 *165:A 0.00028718
4 *76:3 0.00037854
5 *76:4 0.00038652
6 *76:5 0.00048358
7 *76:6 0.00186244
8 *76:7 0.00037854
9 *76:8 0.00254438
10 *76:9 0.00233406
11 *76:10 0.00202487
12 *76:11 0.00198277

*RES
1 *76:11 *165:A 0.9
2 *76:6 *222:Y 1.58667
3 *76:10 *76:11 1.98333
4 *76:5 *221:B 0.283333
5 *76:7 *76:6 0.9
6 *76:10 *76:9 0.226667
7 *76:5 *76:4 0.226667
8 *76:8 *76:7 0.226667
9 *76:8 *76:9 2.26667
10 *76:3 *76:4 0.9
11 *76:3 *76:8 0.226667
*END

*D_NET *122 0.00637112

*CONN
*P *122 O *C 246 225 *L 0
*I *153:Y O *C 246 175 *L 0 *D NAND2X1

*CAP
1 *153:Y 0.00028718
2 *122 0.00295786
3 *122:2 0.00312608

*RES
1 *122:2 *122 3.21583
2 *153:Y *122:2 0.9
*END

*D_NET *91 0.0470725

*CONN
*I *250:B I *C 289 73 *L 0.00962 *D NOR2X1
*I *249:Y O *C 104 139 *L 0 *D OAI22X1

*CAP
1 *249:Y 0.00028718
2 *250:B 0.00028718
3 *91:2 0.00398693
4 *91:3 0.00398693
5 *91:4 0.0176285
6 *91:5 0.0176285
7 *91:6 0.00163363
8 *91:7 0.00163363

*RES
1 *91:7 *250:B 0.9
2 *91:7 *91:6 1.41667
3 *91:4 *91:6 0.9
4 *91:5 *91:4 17.4533
5 *91:3 *91:5 0.9
6 *91:3 *91:2 3.96667
7 *249:Y *91:2 0.9
*END

*D_NET *125 0.0169874

*CONN
*P *125 O *C 286 225 *L 0
*I *242:Y O *C 291 148 *L 0 *D NOR2X1

*CAP
1 *242:Y 0.00028718
2 *125 8.575e-05
3 *125:2 0.00364937
4 *125:3 0.00369147
5 *125:4 0.00328573
6 *125:5 0.00324363
7 *125:6 0.00041283
8 *125:7 0.00041283
9 *125:8 0.00025397
10 *125:5 *11 0.00082433
11 *125:4 *11:2 0.00082433
12 *125 *11 7.97e-06
13 *125:8 *11:2 7.97e-06

*RES
1 *125:8 *125 0.0991667
2 *125:7 *125:8 0.9
3 *125:7 *125:6 0.226667
4 *125:5 *125:6 0.9
5 *125:4 *125:5 3.4
6 *125:4 *125:3 0.226667
7 *125:2 *125:3 3.68333
8 *242:Y *125:2 0.9
*END

*D_NET *11 0.00709068

*CONN
*P *11 O *C 291 225 *L 0
*I *142:Y O *C 291 175 *L 0 *D NAND2X1

*CAP
1 *11 0.00248534
2 *142:Y 0.00028718
3 *11:2 0.00265356
4 *11 *125:5 0.00082433
5 *11:2 *125:4 0.00082433
6 *11 *125 7.97e-06
7 *11:2 *125:8 7.97e-06

*RES
1 *11:2 *11 3.21583
2 *142:Y *11:2 0.9
*END

*D_NET *18 0.0157403

*CONN
*P *18 O *C 306 225 *L 0
*I *239:Y O *C 315 148 *L 0 *D NOR2X1
*I *143:A I *C 305 176 *L 0.00857 *D INVX1

*CAP
1 *143:A 0.00023679
2 *239:Y 0.00024052
3 *18 0.00315158
4 *18:3 0.0004091
5 *18:4 0.00041283
6 *18:5 0.00058887
7 *18:6 0.00282779
8 *18:7 0.00338189
9 *18:8 0.001129
10 *18:9 0.0033619

*RES
1 *18:4 *239:Y 0.226667
2 *18:5 *18:4 0.9
3 *18:9 *18 3.49917
4 *18:6 *18:5 0.453333
5 *18:9 *18:8 0.226667
6 *18:6 *18:7 2.66333
7 *18:7 *18:8 1.02
8 *143:A *18:3 0.255
9 *18:3 *18:7 0.9
*END

*D_NET *53 0.00415748

*CONN
*I *155:Y O *C 337 175 *L 0 *D NAND2X1
*I *154:A I *C 322 176 *L 0.00857 *D INVX1

*CAP
1 *155:Y 0.00043344
2 *154:A 0.00024277
3 *53:2 0.00060575
4 *53:3 0.00079919
5 *53:4 0.001062