simulator lang=spectre insensitive=yes
subckt BUFX8 A Y VDD GND
\+5 (3 5 Y 3) ami06P w=1.2e-05 l=6e-07 as=1.08e-11 ad=3.06e-11 \
ps=1.8e-06 pd=1.71e-05 m=1 region=sat
\+4 (Y 5 3 3) ami06P w=1.2e-05 l=6e-07 as=3.24e-11 ad=1.08e-11 \
ps=1.74e-05 pd=1.8e-06 m=1 region=sat
\+14 (4 5) capacitor c=5.022e-16 m=1
\+13 (3 5) capacitor c=3.8502e-16 m=1
\+12 (A 4) capacitor c=6.5286e-16 m=1
\+11 (A 3) capacitor c=3.6828e-16 m=1
\+10 (4 5) capacitor c=2.05566e-15 m=1
\+9 (3 5) capacitor c=2.0889e-15 m=1
\+8 (Y 5) capacitor c=5.4e-16 m=1
\+7 (Y 4) capacitor c=5.6568e-16 m=1
\+6 (Y 3) capacitor c=3.882e-16 m=1
\+2 (4 5 Y 4) ami06N w=6e-06 l=6e-07 as=5.4e-12 ad=9e-12 ps=1.8e-06 \
pd=9e-06 m=1 region=sat
\+1 (Y 5 4 4) ami06N w=6e-06 l=6e-07 as=9e-12 ad=5.4e-12 ps=9e-06 \
pd=1.8e-06 m=1 region=sat
\+0 (5 A 4 4) ami06N w=3e-06 l=6e-07 as=4.5e-12 ad=4.5e-12 ps=6e-06 \
pd=6e-06 m=1 region=sat
\+3 (5 A 3 3) ami06P w=6e-06 l=6e-07 as=9e-12 ad=9e-12 ps=9e-06 \
pd=9e-06 m=1 region=sat
ends BUFX8
