simulator lang=spectre insensitive=yes
subckt INVX4 A Y vdd gnd
\+1 (Y A vdd vdd) ami06P w=1.2e-05 l=6e-07 as=1.8e-11 ad=1.8e-11 \
ps=1.5e-05 pd=1.5e-05 m=1 region=sat
\+5 (A gnd) capacitor c=3.2643e-16 m=1
\+4 (vdd A) capacitor c=1.9251e-16 m=1
\+3 (Y gnd) capacitor c=6.84e-16 m=1
\+2 (vdd Y) capacitor c=5.0652e-16 m=1
\+0 (Y A gnd gnd) ami06N w=6e-06 l=6e-07 as=9e-12 ad=9e-12 ps=9e-06 \
pd=9e-06 m=1 region=sat
ends INVX4
