simulator lang=spectre insensitive=yes
subckt OAI22X1 A B C D Y vdd gnd
\+7 (vdd D 10 vdd) ami06P w=6e-06 l=1.05e-06 as=2.7e-12 ad=9e-12 \
ps=9e-07 pd=9e-06 m=1 region=sat
\+6 (10 C Y vdd) ami06P w=6e-06 l=1.05e-06 as=5.4e-12 ad=2.7e-12 \
ps=1.8e-06 pd=9e-07 m=1 region=sat
\+5 (Y B 9 vdd) ami06P w=6e-06 l=1.05e-06 as=2.7e-12 ad=5.4e-12 \
ps=9e-07 pd=1.8e-06 m=1 region=sat
\+4 (9 A vdd vdd) ami06P w=6e-06 l=1.05e-06 as=9e-12 ad=2.7e-12 \
ps=9e-06 pd=9e-07 m=1 region=sat
\+25 (D gnd) capacitor c=4.8546e-16 m=1
\+24 (C gnd) capacitor c=4.8546e-16 m=1
\+23 (B gnd) capacitor c=4.8546e-16 m=1
\+22 (A gnd) capacitor c=6.5286e-16 m=1
\+21 (vdd D) capacitor c=5.6916e-16 m=1
\+20 (vdd C) capacitor c=4.6872e-16 m=1
\+19 (vdd B) capacitor c=4.6872e-16 m=1
\+18 (vdd A) capacitor c=4.0176e-16 m=1
\+17 (gnd 8) capacitor c=2.09652e-15 m=1
\+16 (D 8) capacitor c=2.7e-16 m=1
\+15 (C 8) capacitor c=2.7e-16 m=1
\+14 (B 8) capacitor c=2.7e-16 m=1
\+13 (A 8) capacitor c=2.7e-16 m=1
\+12 (vdd C) capacitor c=2.6988e-16 m=1
\+11 (vdd B) capacitor c=2.6988e-16 m=1
\+10 (Y 8) capacitor c=6.8448e-16 m=1
\+9 (Y gnd) capacitor c=9.2388e-16 m=1
\+8 (vdd Y) capacitor c=7.7364e-16 m=1
\+3 (8 D gnd gnd) ami06N w=3e-06 l=6e-07 as=2.7e-12 ad=4.5e-12 ps=1.8e-06 \
pd=6e-06 m=1 region=sat
\+2 (gnd C 8 gnd) ami06N w=3e-06 l=6e-07 as=2.7e-12 ad=2.7e-12 ps=1.8e-06 \
pd=1.8e-06 m=1 region=sat
\+1 (8 B Y gnd) ami06N w=3e-06 l=6e-07 as=2.7e-12 ad=2.7e-12 ps=1.8e-06 \
pd=1.8e-06 m=1 region=sat
\+0 (Y A 8 gnd) ami06N w=3e-06 l=6e-07 as=4.5e-12 ad=2.7e-12 ps=6e-06 \
pd=1.8e-06 m=1 region=sat
ends OAI22X1
