simulator lang=spectre insensitive=yes
subckt MUX2X1_ALT A B S Y GND VDD
\+5 (A S Y vdd) ami06P w=3e-06 l=6e-07 as=2.7e-12 ad=4.5e-12 \
ps=1.8e-06 pd=6e-06 m=1 region=sat
\+4 (Y 7 B vdd) ami06P w=3e-06 l=6e-07 as=4.5e-12 ad=2.7e-12 ps=6e-06 \
pd=1.8e-06 m=1 region=sat
\+3 (7 S vdd vdd) ami06P w=3e-06 l=6e-07 as=4.5e-12 ad=4.5e-12 \
ps=6e-06 pd=6e-06 m=1 region=sat
\+22 (gnd 7) capacitor c=6.1938e-16 m=1
\+21 (S gnd) capacitor c=9.7929e-16 m=1
\+20 (vdd 7) capacitor c=4.8546e-16 m=1
\+19 (vdd S) capacitor c=1.34757e-15 m=1
\+18 (gnd 7) capacitor c=1.48266e-15 m=1
\+17 (Y 7) capacitor c=2.7e-16 m=1
\+16 (Y gnd) capacitor c=1.7193e-15 m=1
\+15 (S 7) capacitor c=5.4e-16 m=1
\+14 (S Y) capacitor c=2.7e-16 m=1
\+13 (B 7) capacitor c=5.4e-16 m=1
\+12 (B gnd) capacitor c=1.60098e-15 m=1
\+11 (B S) capacitor c=5.4e-16 m=1
\+10 (A gnd) capacitor c=1.83762e-15 m=1
\+9 (vdd 7) capacitor c=1.54182e-15 m=1
\+8 (vdd Y) capacitor c=1.77846e-15 m=1
\+7 (vdd B) capacitor c=1.66014e-15 m=1
\+6 (vdd A) capacitor c=1.89678e-15 m=1
\+2 (A 7 Y gnd) ami06N w=1.5e-06 l=6e-07 as=1.35e-12 ad=2.25e-12 \
ps=1.8e-06 pd=4.5e-06 m=1 region=sat
\+1 (Y S B gnd) ami06N w=1.5e-06 l=6e-07 as=2.25e-12 ad=1.35e-12 \
ps=4.5e-06 pd=1.8e-06 m=1 region=sat
\+0 (7 S gnd gnd) ami06N w=1.5e-06 l=6e-07 as=2.25e-12 ad=2.25e-12 \
ps=4.5e-06 pd=4.5e-06 m=1 region=sat
ends MUX2X1_ALT
