simulator lang=spectre insensitive=yes
subckt INVX2 A Y VDD GND
\+1 (Y A vdd vdd) ami06P w=6e-06 l=6e-07 as=9e-12 ad=9e-12 ps=9e-06 \
pd=9e-06 m=1 region=sat
\+5 (A gnd) capacitor c=6.5286e-16 m=1
\+4 (vdd A) capacitor c=3.6828e-16 m=1
\+3 (Y gnd) capacitor c=1.68972e-15 m=1
\+2 (vdd Y) capacitor c=1.2756e-15 m=1
\+0 (Y A gnd gnd) ami06N w=3e-06 l=6e-07 as=4.5e-12 ad=4.5e-12 ps=6e-06 \
pd=6e-06 m=1 region=sat
ends INVX2
