simulator lang=spectre insensitive=yes
subckt INVX1 A Y VDD GND
\+1 (Y A vdd vdd) ami06P w=3e-06 l=6e-07 as=4.5e-12 ad=4.5e-12 \
ps=6e-06 pd=6e-06 m=1 region=sat
\+5 (A gnd) capacitor c=6.5286e-16 m=1
\+4 (vdd A) capacitor c=4.4361e-16 m=1
\+3 (Y gnd) capacitor c=1.80804e-15 m=1
\+2 (vdd Y) capacitor c=1.54182e-15 m=1
\+0 (Y A gnd gnd) ami06N w=1.5e-06 l=6e-07 as=2.25e-12 ad=2.25e-12 \
ps=4.5e-06 pd=4.5e-06 m=1 region=sat
ends INVX1
