*SPEF "IEEE 1481-1998"
*DESIGN "controller"
*DATE "Tue Nov 18 17:41:14 2014"
*VENDOR "Cadence Design Systems, Inc."
*PROGRAM "Encounter"
*VERSION "13.13-s017_1"
*DESIGN_FLOW "COUPLING C" "PIN_CAP NONE" "NAME_SCOPE LOCAL"
*DIVIDER /
*DELIMITER :
*BUS_DELIMITER []
*T_UNIT 1 NS
*C_UNIT 1 PF
*R_UNIT 1 OHM
*L_UNIT 1 HENRY

// MMMC spef file for corner 'typical_rc'

*NAME_MAP

*1 FE_OFN0_n198
*2 FE_OFN1_n197
*3 aluop[0]
*4 aluop[1]
*5 alusrca
*6 alusrcb[0]
*7 alusrcb[1]
*8 clk
*9 clk__L1_N0
*10 iord
*11 irwrite[0]
*12 irwrite[1]
*13 irwrite[2]
*14 irwrite[3]
*15 memread
*16 memtoreg
*17 memwrite
*18 n1
*19 n102
*20 n103
*21 n104
*22 n105
*23 n106
*24 n107
*25 n108
*26 n109
*27 n111
*28 n112
*29 n114
*30 n115
*31 n116
*32 n117
*33 n118
*34 n119
*35 n121
*36 n124
*37 n125
*38 n126
*39 n127
*40 n128
*41 n129
*42 n130
*43 n132
*44 n133
*45 n134
*46 n135
*47 n136
*48 n137
*49 n139
*50 n140
*51 n141
*52 n142
*53 n143
*54 n144
*55 n145
*56 n146
*57 n147
*58 n148
*59 n149
*60 n150
*61 n151
*62 n152
*63 n154
*64 n155
*65 n156
*66 n157
*67 n159
*68 n160
*69 n161
*70 n162
*71 n163
*72 n164
*73 n165
*74 n166
*75 n168
*76 n170
*77 n173
*78 n174
*79 n175
*80 n176
*81 n181
*82 n182
*83 n183
*84 n184
*85 n185
*86 n186
*87 n187
*88 n188
*89 n189
*90 n190
*91 n191
*92 n193
*93 n194
*94 n195
*95 n196
*96 n197
*97 n198
*98 n199
*99 n20
*100 n200
*101 n201
*102 n203
*103 n204
*104 n205
*105 n207
*106 n208
*107 n210
*108 n211
*109 n212
*110 n213
*111 n215
*112 n216
*113 n217
*114 n218
*115 n219
*116 n220
*117 n221
*118 n222
*119 n223
*120 n224
*121 n3
*122 n7
*123 op[0]
*124 op[1]
*125 op[2]
*126 op[3]
*127 op[4]
*128 op[5]
*129 pcen
*130 pcsource[0]
*131 pcsource[1]
*132 regdst
*133 regwrite
*134 reset
*135 state[0]
*136 state[1]
*137 state[2]
*138 state[3]
*139 zero
*140 clk__L1_I0
*141 FE_OFC1_n197
*142 FE_OFC0_n198
*143 state_reg_1_
*144 state_reg_3_
*145 state_reg_2_
*146 state_reg_0_
*147 U120
*148 U121
*149 U122
*150 U123
*151 U124
*152 U125
*153 U126
*154 U127
*155 U130
*156 U131
*157 U132
*158 U134
*159 U135
*160 U137
*161 U138
*162 U140
*163 U141
*164 U143
*165 U144
*166 U146
*167 U147
*168 U148
*169 U149
*170 U150
*171 U151
*172 U154
*173 U155
*174 U156
*175 U159
*176 U160
*177 U161
*178 U162
*179 U164
*180 U165
*181 U166
*182 U167
*183 U168
*184 U170
*185 U171
*186 U174
*187 U175
*188 U176
*189 U177
*190 U178
*191 U179
*192 U180
*193 U181
*194 U182
*195 U183
*196 U184
*197 U185
*198 U186
*199 U187
*200 U188
*201 U189
*202 U190
*203 U191
*204 U192
*205 U193
*206 U194
*207 U195
*208 U196
*209 U197
*210 U198
*211 U199
*212 U201
*213 U202
*214 U203
*215 U204
*216 U205
*217 U206
*218 U207
*219 U208
*220 U209
*221 U211
*222 U212
*223 U213
*224 U214
*225 U215
*226 U216
*227 U217
*228 U218
*229 U219
*230 U221
*231 U222
*232 U223
*233 U224
*234 U225
*235 U226
*236 U227
*237 U229
*238 U231
*239 U232
*240 U233
*241 U234
*242 U235
*243 U237
*244 U238
*245 U239
*246 U240
*247 U241
*248 U242
*249 U243
*250 U244
*251 U245
*252 U246
*253 U247
*254 U248
*255 U249
*256 U250
*257 U251
*258 U252
*259 U253
*260 U254
*261 U255
*262 U256
*263 U257
*264 U258
*265 U259
*266 U260
*267 U261
*268 U262


*PORTS

*8 I *C 198 225
*134 I *C 140.4 225
*128 I *C 75.6 0
*127 I *C 0 175.5
*126 I *C 68.4 0
*125 I *C 0 115.5
*124 I *C 0 109.5
*123 I *C 0 181.5
*139 I *C 349.2 0
*15 O *C 322.8 0
*17 O *C 405.75 145.5
*5 O *C 294 0
*16 O *C 318 225
*10 O *C 405.75 139.5
*129 O *C 337.2 0
*133 O *C 339.6 225
*132 O *C 296.4 225
*131 O *C 405.75 76.5
*130 O *C 332.4 0
*7 O *C 205.2 0
*6 O *C 310.8 0
*4 O *C 284.4 0
*3 O *C 327.6 0
*14 O *C 289.2 0
*13 O *C 231.6 0
*12 O *C 270 0
*11 O *C 236.4 0


*D_NET *122 0.00701146

*CONN
*I *147:Y O *C 210 136 *L 0 *D TIEHI
*I *146:CLRB I *C 204 126 *L 0 *D DFF2
*I *145:CLRB I *C 196 126 *L 0 *D DFF2
*I *144:CLRB I *C 189 126 *L 0 *D DFF2
*I *143:CLRB I *C 194 126 *L 0 *D DFF2

*CAP
1 *144:CLRB 0.00054458
2 *143:CLRB 0.00081687
3 *145:CLRB 0.00108916
4 *146:CLRB 0.00268886
5 *147:Y 0.00187199

*RES
1 *144:CLRB *143:CLRB 0.453333
2 *143:CLRB *145:CLRB 0.226667
3 *145:CLRB *146:CLRB 0.68
4 *146:CLRB *147:Y 1.55833
*END

*D_NET *121 0.00755604

*CONN
*I *267:Y O *C 178 148 *L 0 *D NOR2X1
*I *144:D I *C 189 126 *L 0.0156 *D DFF2

*CAP
1 *267:Y 0.00377802
2 *144:D 0.00377802

*RES
1 *267:Y *144:D 3.145
*END

*D_NET *99 0.00428856

*CONN
*I *264:Y O *C 202 115 *L 0 *D AOI22X1
*I *143:D I *C 194 126 *L 0.0156 *D DFF2

*CAP
1 *143:D 0.00214428
2 *264:Y 0.00214428

*RES
1 *143:D *264:Y 1.785
*END

*D_NET *19 0.0194006

*CONN
*I *166:Y O *C 138 145 *L 0 *D NAND2X1
*I *146:D I *C 204 126 *L 0.0156 *D DFF2

*CAP
1 *166:Y 0.00970032
2 *146:D 0.00970032

*RES
1 *166:Y *146:D 8.075
*END

*D_NET *18 0.0200814

*CONN
*I *245:Y O *C 130 148 *L 0 *D NOR2X1
*I *145:D I *C 196 126 *L 0.0156 *D DFF2

*CAP
1 *245:Y 0.0100407
2 *145:D 0.0100407

*RES
1 *245:Y *145:D 8.35833
*END

*D_NET *9 0.0162353

*CONN
*I *146:CLK I *C 204 126 *L 0.0436 *D DFF2
*I *145:CLK I *C 196 126 *L 0.0436 *D DFF2
*I *144:CLK I *C 189 126 *L 0.0436 *D DFF2
*I *143:CLK I *C 194 126 *L 0.0436 *D DFF2
*I *140:Y O *C 205 181 *L 0 *D BUFX8

*CAP
1 *144:CLK 0.00054458
2 *143:CLK 0.00081687
3 *145:CLK 0.00108916
4 *146:CLK 0.00730077
5 *140:Y 0.0064839

*RES
1 *144:CLK *143:CLK 0.453333
2 *143:CLK *145:CLK 0.226667
3 *145:CLK *146:CLK 0.68
4 *146:CLK *140:Y 5.3975
*END

*D_NET *106 0.00156424

*CONN
*I *246:Y O *C 102 34 *L 0 *D NOR2X1
*I *239:A I *C 109 38 *L 0.00857 *D INV1

*CAP
1 *246:Y 0.00040462
2 *239:A 0.00026975
3 *106:2 0.00051237
4 *106:3 0.0003775

*RES
1 *106:3 *239:A 0.283333
2 *106:2 *106:3 0.113333
3 *246:Y *106:2 0.425
*END

*D_NET *52 0.00102858

*CONN
*I *182:Y O *C 214 37 *L 0 *D NAND2X1
*I *181:A I *C 209 38 *L 0.00857 *D INV1

*CAP
1 *182:Y 0.00051429
2 *181:A 0.00051429

*RES
1 *181:A *182:Y 0.538333
*END

*D_NET *73 0.00098876

*CONN
*I *161:Y O *C 366 37 *L 0 *D NAND2X1
*I *160:A I *C 360 38 *L 0.00857 *D INV1

*CAP
1 *161:Y 0.00049438
2 *160:A 0.00049438

*RES
1 *160:A *161:Y 0.538333
*END

*D_NET *21 0.00289182

*CONN
*I *239:Y O *C 111 34 *L 0 *D INV1
*I *167:B I *C 128 40 *L 0.0123 *D NAND2X1

*CAP
1 *239:Y 0.00144591
2 *167:B 0.00144591

*RES
1 *239:Y *167:B 1.53
*END

*D_NET *83 0.0015027

*CONN
*I *255:Y O *C 301 34 *L 0 *D NOR2X1
*I *159:A I *C 296 46 *L 0.0113 *D NAND2X1

*CAP
1 *255:Y 0.00048198
2 *159:A 0.00026937
3 *83:2 0.00075135

*RES
1 *83:2 *159:A 0.283333
2 *83:2 *255:Y 0.51
*END

*D_NET *42 0.00105052

*CONN
*I *199:Y O *C 234 34 *L 0 *D INV1
*I *198:A I *C 229 46 *L 0.0113 *D NAND2X1

*CAP
1 *199:Y 0.00052526
2 *198:A 0.00052526

*RES
1 *198:A *199:Y 0.51
*END

*D_NET *30 0.00087908

*CONN
*I *204:Y O *C 169 79 *L 0 *D INV1
*I *196:A I *C 174 67 *L 0.0113 *D NAND2X1

*CAP
1 *204:Y 0.00043954
2 *196:A 0.00043954

*RES
1 *204:Y *196:A 0.453333
*END

*D_NET *95 0.00152734

*CONN
*I *244:Y O *C 128 79 *L 0 *D NOR2X1
*I *213:A I *C 133 67 *L 0.0113 *D NAND2X1

*CAP
1 *244:Y 0.0004943
2 *213:A 0.00026937
3 *95:2 0.00076367

*RES
1 *213:A *95:2 0.283333
2 *244:Y *95:2 0.51
*END

*D_NET *31 0.0039884

*CONN
*I *205:Y O *C 147 76 *L 0 *D NAND2X1
*I *204:A I *C 167 75 *L 0.00857 *D INV1

*CAP
1 *205:Y 0.00160534
2 *204:A 0.00028111
3 *31:2 0.00171309
4 *31:3 0.00038886

*RES
1 *31:3 *204:A 0.283333
2 *31:3 *31:2 0.113333
3 *205:Y *31:2 1.615
*END

*D_NET *39 0.00237476

*CONN
*I *191:Y O *C 54 106 *L 0 *D NAND2X1
*I *190:A I *C 46 107 *L 0.00857 *D INV1

*CAP
1 *191:Y 0.00075639
2 *190:A 0.00043099
3 *39:2 0.00118738

*RES
1 *190:A *39:2 0.453333
2 *39:2 *191:Y 0.708333
*END

*D_NET *45 0.00483086

*CONN
*I *229:A I *C 149 107 *L 0.00857 *D INV1
*I *194:Y O *C 171 106 *L 0 *D NAND2X1

*CAP
1 *194:Y 0.00171469
2 *229:A 0.00026975
3 *45:2 0.00214568
4 *45:3 0.00070074

*RES
1 *229:A *45:3 0.283333
2 *45:3 *45:2 0.453333
3 *45:2 *194:Y 1.785
*END

*D_NET *101 0.00270968

*CONN
*I *264:D I *C 193 112 *L 0.0188 *D AOI22X1
*I *165:Y O *C 178 106 *L 0 *D NAND2X1

*CAP
1 *165:Y 0.00135484
2 *264:D 0.00135484

*RES
1 *165:Y *264:D 1.30333
*END

*D_NET *32 0.0022947

*CONN
*I *210:Y O *C 327 103 *L 0 *D INV1
*I *149:B I *C 339 115 *L 0.0242 *D NAND2X2

*CAP
1 *210:Y 0.00114735
2 *149:B 0.00114735

*RES
1 *210:Y *149:B 1.105
*END

*D_NET *63 0.00086318

*CONN
*I *216:Y O *C 56 148 *L 0 *D INV1
*I *214:A I *C 61 136 *L 0.0113 *D NAND2X1

*CAP
1 *216:Y 0.00043159
2 *214:A 0.00043159

*RES
1 *216:Y *214:A 0.453333
*END

*D_NET *57 0.00152858

*CONN
*I *175:Y O *C 87 145 *L 0 *D NAND2X1
*I *174:A I *C 92 136 *L 0.0113 *D NAND2X1

*CAP
1 *175:Y 0.00049492
2 *174:A 0.00026937
3 *57:2 0.00076429

*RES
1 *174:A *57:2 0.283333
2 *175:Y *57:2 0.51
*END

*D_NET *56 0.00118688

*CONN
*I *176:Y O *C 78 148 *L 0 *D INV1
*I *175:B I *C 85 142 *L 0.0123 *D NAND2X1

*CAP
1 *176:Y 0.00059344
2 *175:B 0.00059344

*RES
1 *176:Y *175:B 0.623333
*END

*D_NET *79 0.00161848

*CONN
*I *245:B I *C 128 142 *L 0.00962 *D NOR2X1
*I *232:Y O *C 118 148 *L 0 *D INV1

*CAP
1 *232:Y 0.00080924
2 *245:B 0.00080924

*RES
1 *232:Y *245:B 0.85
*END

*D_NET *114 0.00205004

*CONN
*I *267:B I *C 181 142 *L 0.00962 *D NOR2X1
*I *228:Y O *C 193 148 *L 0 *D INV1

*CAP
1 *228:Y 0.00102502
2 *267:B 0.00102502

*RES
1 *267:B *228:Y 1.07667
*END

*D_NET *77 0.00121336

*CONN
*I *225:Y O *C 248 148 *L 0 *D INV1
*I *224:B I *C 241 142 *L 0.0123 *D NAND2X1

*CAP
1 *225:Y 0.00060668
2 *224:B 0.00060668

*RES
1 *224:B *225:Y 0.623333
*END

*D_NET *96 0.00184812

*CONN
*I *252:Y O *C 255 148 *L 0 *D NOR2X1
*I *141:A I *C 262 142 *L 0.0113 *D BUFX4

*CAP
1 *252:Y 0.00041192
2 *141:A 0.00024277
3 *96:2 0.00068129
4 *96:3 0.00051214

*RES
1 *96:3 *141:A 0.255
2 *96:2 *96:3 0.283333
3 *252:Y *96:2 0.425
*END

*D_NET *75 0.00229632

*CONN
*I *152:Y O *C 370 148 *L 0 *D INV1
*I *151:B I *C 358 142 *L 0.0123 *D NAND2X1

*CAP
1 *152:Y 0.00090285
2 *151:B 0.00090285
3 *152:Y *10:2 0.00024531
4 *151:B *151:Y 0.00024531

*RES
1 *151:B *152:Y 1.07667
*END

*D_NET *49 0.00223392

*CONN
*I *228:A I *C 195 144 *L 0.00857 *D INV1
*I *178:Y O *C 202 145 *L 0 *D NAND2X1

*CAP
1 *178:Y 0.00041192
2 *228:A 0.00027405
3 *49:2 0.00084291
4 *49:3 0.00070504

*RES
1 *228:A *49:3 0.283333
2 *49:2 *49:3 0.453333
3 *49:2 *178:Y 0.425
*END

*D_NET *110 0.00140704

*CONN
*I *266:Y O *C 73 172 *L 0 *D NOR2X1
*I *189:B I *C 66 178 *L 0.0123 *D NAND2X1

*CAP
1 *266:Y 0.00070352
2 *189:B 0.00070352

*RES
1 *189:B *266:Y 0.68
*END

*D_NET *25 0.00270968

*CONN
*I *170:Y O *C 147 172 *L 0 *D INV1
*I *169:B I *C 133 178 *L 0.0123 *D NAND2X1

*CAP
1 *170:Y 0.00110953
2 *169:B 0.00110953
3 *170:Y *24:2 0.00024531
4 *169:B *169:Y 0.00024531

*RES
1 *169:B *170:Y 1.30333
*END

*D_NET *26 0.00483086

*CONN
*I *171:Y O *C 171 175 *L 0 *D NAND2X1
*I *170:A I *C 149 176 *L 0.00857 *D INV1

*CAP
1 *171:Y 0.00171469
2 *170:A 0.00026975
3 *26:2 0.00214568
4 *26:3 0.00070074

*RES
1 *170:A *26:3 0.283333
2 *26:3 *26:2 0.453333
3 *26:2 *171:Y 1.785
*END

*D_NET *107 0.0015027

*CONN
*I *265:Y O *C 178 172 *L 0 *D NOR2X1
*I *171:A I *C 174 184 *L 0.0113 *D NAND2X1

*CAP
1 *265:Y 0.00048198
2 *171:A 0.00026937
3 *107:2 0.00075135

*RES
1 *107:2 *171:A 0.283333
2 *107:2 *265:Y 0.51
*END

*D_NET *97 0.001824

*CONN
*I *183:Y O *C 224 175 *L 0 *D NAND2X1
*I *142:A I *C 231 178 *L 0.0113 *D BUFX4

*CAP
1 *183:Y 0.00040165
2 *142:A 0.00024098
3 *97:2 0.00067102
4 *97:3 0.00051035

*RES
1 *97:3 *142:A 0.255
2 *97:3 *97:2 0.283333
3 *183:Y *97:2 0.425
*END

*D_NET *65 0.00086494

*CONN
*I *219:Y O *C 46 172 *L 0 *D INV1
*I *217:A I *C 51 184 *L 0.0113 *D NAND2X1

*CAP
1 *219:Y 0.00043247
2 *217:A 0.00043247

*RES
1 *219:Y *217:A 0.453333
*END

*D_NET *36 0.00086318

*CONN
*I *188:Y O *C 82 172 *L 0 *D INV1
*I *187:A I *C 87 184 *L 0.0113 *D NAND2X1

*CAP
1 *188:Y 0.00043159
2 *187:A 0.00043159

*RES
1 *188:Y *187:A 0.453333
*END

*D_NET *61 0.00193788

*CONN
*I *183:A I *C 222 184 *L 0.0113 *D NAND2X1
*I *172:B I *C 217 178 *L 0.0123 *D NAND2X1
*I *146:QB O *C 204 126 *L 0 *D DFF2

*CAP
1 *183:A 0.00024277
2 *172:B 0.00018743
3 *61:3 0.00078151
4 *61:4 0.00072617

*RES
1 *172:B *61:4 0.198333
2 *61:4 *61:3 0.566667
3 *61:3 *183:A 0.255
4 *172:B *146:QB 6.205
*END

*D_NET *70 0.00152532

*CONN
*I *155:Y O *C 332 175 *L 0 *D NAND2X1
*I *153:A I *C 337 184 *L 0.0113 *D NAND2X1

*CAP
1 *155:Y 0.00049329
2 *153:A 0.00026937
3 *70:2 0.00076266

*RES
1 *153:A *70:2 0.283333
2 *155:Y *70:2 0.51
*END

*D_NET *23 0.00218462

*CONN
*I *168:Y O *C 147 148 *L 0 *D INV1
*I *166:A I *C 135 136 *L 0.0113 *D NAND2X1

*CAP
1 *168:Y 0.00069795
2 *23:2 0.00069795
3 *23:3 0.00039436
4 *23:4 0.00039436

*RES
1 *23:4 *166:A 0.9
2 *23:4 *23:3 0.425
3 *23:2 *23:3 0.9
4 *23:2 *168:Y 0.708333
*END

*D_NET *69 0.0047854

*CONN
*I *226:Y O *C 306 172 *L 0 *D INV1
*I *155:B I *C 330 178 *L 0.0123 *D NAND2X1

*CAP
1 *226:Y 0.00042795
2 *155:B 0.00026937
3 *69:2 0.00042795
4 *69:3 0.00126195
5 *69:4 0.00126195
6 *69:5 0.00043343
7 *69:6 0.0007028

*RES
1 *155:B *69:6 0.283333
2 *69:5 *69:6 0.425
3 *69:4 *69:5 0.9
4 *69:3 *69:4 1.36
5 *69:2 *69:3 0.9
6 *226:Y *69:2 0.425
*END

*D_NET *40 0.00904134

*CONN
*I *192:Y O *C 63 79 *L 0 *D INV1
*I *191:B I *C 51 109 *L 0.0123 *D NAND2X1

*CAP
1 *191:B 0.00021523
2 *192:Y 0.00141301
3 *40:2 0.00038754
4 *40:3 0.00158532
5 *40:4 0.00272012
6 *40:5 0.00272012

*RES
1 *40:2 *191:B 0.198333
2 *40:5 *40:2 0.9
3 *40:4 *40:5 2.83333
4 *40:3 *40:4 0.9
5 *40:3 *192:Y 1.33167
*END

*D_NET *38 0.0161009

*CONN
*I *190:Y O *C 44 103 *L 0 *D INV1
*I *189:A I *C 61 184 *L 0.0113 *D NAND2X1

*CAP
1 *190:Y 0.00074587
2 *189:A 0.00052213
3 *38:2 0.00091818
4 *38:3 0.00058887
5 *38:4 0.0064419
6 *38:5 0.00618947
7 *38:6 0.00069444

*RES
1 *38:6 *189:A 0.481667
2 *38:5 *38:6 0.9
3 *38:4 *38:5 6.51667
4 *38:3 *38:4 0.453333
5 *38:2 *38:3 0.9
6 *190:Y *38:2 0.708333
*END

*D_NET *59 0.00830744

*CONN
*I *208:Y O *C 54 34 *L 0 *D INV1
*I *207:B I *C 70 73 *L 0.0123 *D NAND2X1

*CAP
1 *208:Y 0.00045857
2 *207:B 0.00021662
3 *59:2 0.00063088
4 *59:3 0.00246492
5 *59:4 0.003138
6 *59:5 0.00100952
7 *59:6 0.00038893

*RES
1 *59:6 *207:B 0.198333
2 *59:5 *59:6 0.9
3 *59:4 *59:5 0.906667
4 *59:3 *59:4 2.55
5 *59:2 *59:3 0.9
6 *208:Y *59:2 0.481667
*END

*D_NET *109 0.0117965

*CONN
*I *266:A I *C 70 184 *L 0.00859 *D NOR2X1
*I *217:Y O *C 54 175 *L 0 *D NAND2X1
*I *216:A I *C 54 144 *L 0.00857 *D INV1

*CAP
1 *266:A 0.00052344
2 *217:Y 0.00093992
3 *216:A 0.00027405
4 *109:3 0.00069575
5 *109:4 0.00041597
6 *109:5 0.00068842
7 *109:6 0.00043599
8 *109:7 0.00295957
9 *109:8 0.00295957
10 *109:9 0.00086857
11 *109:10 0.00044636
12 *109:11 0.00058887

*RES
1 *109:3 *266:A 0.481667
2 *109:11 *109:3 0.9
3 *109:5 *109:11 0.453333
4 *109:10 *216:A 0.283333
5 *109:6 *109:5 0.283333
6 *109:8 *109:10 0.9
7 *109:9 *109:6 0.9
8 *109:8 *109:7 2.94667
9 *217:Y *109:9 0.651667
10 *109:4 *109:7 0.9
11 *109:4 *217:Y 0.255
*END

*D_NET *53 0.00352704

*CONN
*I *193:Y O *C 68 106 *L 0 *D NAND2X1
*I *191:A I *C 56 115 *L 0.0113 *D NAND2X1

*CAP
1 *193:Y 0.00047638
2 *191:A 0.00024983
3 *53:2 0.00044435
4 *53:3 0.00069678
5 *53:4 0.00064869
6 *53:5 0.00058887
7 *53:6 0.00042214

*RES
1 *191:A *53:6 0.255
2 *53:5 *53:6 0.9
3 *53:5 *53:3 0.453333
4 *53:3 *53:2 0.283333
5 *53:4 *53:2 0.9
6 *53:4 *193:Y 0.481667
*END

*D_NET *126 0.0125224

*CONN
*P *126 I *C 68 0 *L 0
*I *262:B I *C 75 43 *L 0.0303 *D XOR2X1
*I *209:A I *C 59 38 *L 0.00857 *D INV1

*CAP
1 *262:B 0.00071625
2 *126 0.00379051
3 *209:A 0.00043099
4 *126:3 0.00395873
5 *126:4 0.00127573
6 *126:5 0.00067435
7 *126:6 0.00053629
8 *126:7 0.00053629
9 *126:8 0.0006033

*RES
1 *209:A *126:8 0.453333
2 *126:7 *126:8 0.9
3 *126:7 *126:6 0.396667
4 *126:5 *126:6 0.9
5 *126 *126:3 4.06583
6 *126:5 *126:4 0.453333
7 *126:4 *126:3 0.9
8 *126:4 *262:B 0.68
*END

*D_NET *64 0.00762776

*CONN
*I *215:Y O *C 61 103 *L 0 *D INV1
*I *214:B I *C 66 142 *L 0.0123 *D NAND2X1

*CAP
1 *215:Y 0.00040667
2 *214:B 0.00021662
3 *64:2 0.00280796
4 *64:3 0.00285006
5 *64:4 0.00057898
6 *64:5 0.00037854
7 *64:6 0.00038893

*RES
1 *214:B *64:6 0.198333
2 *64:2 *64:6 0.9
3 *64:3 *64:2 2.83333
4 *64:5 *64:3 0.226667
5 *64:4 *64:5 0.9
6 *215:Y *64:4 0.425
*END

*D_NET *104 0.010212

*CONN
*I *261:B I *C 82 109 *L 0.00962 *D NOR2X1
*I *214:Y O *C 63 145 *L 0 *D NAND2X1
*I *176:A I *C 76 144 *L 0.00857 *D INV1

*CAP
1 *214:Y 0.00109396
2 *261:B 0.00061586
3 *176:A 0.00043099
4 *104:3 0.00279538
5 *104:4 0.00279538
6 *104:5 0.00120632
7 *104:6 0.00078817
8 *104:7 0.00048591

*RES
1 *104:6 *261:B 0.651667
2 *104:7 *176:A 0.453333
3 *104:4 *104:6 0.9
4 *214:Y *104:5 1.105
5 *104:5 *104:7 0.0566667
6 *104:4 *104:3 2.83333
7 *104:3 *104:5 0.9
*END

*D_NET *37 0.004724

*CONN
*I *189:Y O *C 63 175 *L 0 *D NAND2X1
*I *188:A I *C 81 176 *L 0.00857 *D INV1

*CAP
1 *189:Y 0.00072804
2 *188:A 0.00025416
3 *37:2 0.00090035
4 *37:3 0.00079919
5 *37:4 0.00103927
6 *37:5 0.00057652
7 *37:6 0.00042647

*RES
1 *37:6 *188:A 0.283333
2 *37:5 *37:6 0.9
3 *37:5 *37:4 0.453333
4 *37:3 *37:4 0.68
5 *37:2 *37:3 0.9
6 *189:Y *37:2 0.651667
*END

*D_NET *93 0.00666808

*CONN
*I *261:Y O *C 85 103 *L 0 *D NOR2X1
*I *243:A I *C 85 75 *L 0.00857 *D INV1

*CAP
1 *261:Y 0.00019183
2 *243:A 0.00026534
3 *93:2 0.00036414
4 *93:3 0.0024712
5 *93:4 0.0024712
6 *93:5 0.00043765
7 *93:3 *116:5 0.00020504
8 *93:4 *116:6 0.00020504
9 *93:3 *116:6 9.11e-06
10 *93:4 *116:7 9.11e-06
11 *243:A *116:8 1.921e-05
12 *93:5 *207:Y 1.921e-05

*RES
1 *93:5 *243:A 0.283333
2 *93:4 *93:5 0.9
3 *93:4 *93:3 2.66333
4 *93:2 *93:3 0.9
5 *93:2 *261:Y 0.198333
*END

*D_NET *58 0.012418

*CONN
*I *247:B I *C 97 73 *L 0.00962 *D NOR2X1
*I *209:Y O *C 61 34 *L 0 *D INV1
*I *207:A I *C 75 67 *L 0.0113 *D NAND2X1

*CAP
1 *209:Y 0.00111083
2 *207:A 0.00119356
3 *247:B 0.00071178
4 *58:3 0.00128314
5 *58:4 0.00119356
6 *58:5 0.00058887
7 *58:6 0.00096893
8 *58:7 0.0007165
9 *58:8 0.00088409
10 *58:9 0.0006786
11 *58:10 0.00069441
12 *58:11 0.00120479
13 *58:12 0.00118898

*RES
1 *209:Y *58:3 1.105
2 *58:9 *58:3 0.9
3 *58:9 *58:10 0.566667
4 *58:8 *247:B 0.651667
5 *58:10 *58:11 0.198333
6 *58:7 *58:8 0.9
7 *58:11 *58:12 1.13333
8 *58:6 *58:7 0.566667
9 *207:A *58:12 0.9
10 *58:5 *58:6 0.453333
11 *207:A *58:4 0.935
12 *58:4 *58:5 0.9
*END

*D_NET *55 0.00471509

*CONN
*I *177:Y O *C 94 106 *L 0 *D NAND2X1
*I *175:A I *C 90 136 *L 0.0113 *D NAND2X1

*CAP
1 *177:Y 0.00019183
2 *175:A 0.00028718
3 *55:2 0.00036414
4 *55:3 0.00169936
5 *55:4 0.00176775
6 *55:5 0.00040483

*RES
1 *55:5 *175:A 0.9
2 *55:5 *55:4 0.255
3 *55:3 *55:4 1.7
4 *55:2 *55:3 0.9
5 *55:2 *177:Y 0.198333
*END

*D_NET *27 0.0153808

*CONN
*I *174:Y O *C 94 145 *L 0 *D NAND2X1
*I *169:A I *C 128 184 *L 0.0113 *D NAND2X1

*CAP
1 *174:Y 0.00024796
2 *169:A 0.00335926
3 *27:2 0.00042027
4 *27:3 0.00308654
5 *27:4 0.00308654
6 *27:5 0.00353157
7 *27:4 *28:3 0.00082433
8 *27:3 *28:4 0.00082433

*RES
1 *27:5 *169:A 3.42833
2 *27:4 *27:5 0.9
3 *27:3 *27:4 3.68333
4 *27:2 *27:3 0.9
5 *27:2 *174:Y 0.255
*END

*D_NET *80 0.00321261

*CONN
*I *246:B I *C 104 40 *L 0.00962 *D NOR2X1
*I *240:Y O *C 94 34 *L 0 *D INV1

*CAP
1 *240:Y 0.00046832
2 *246:B 0.00028718
3 *80:2 0.00064063
4 *80:3 0.0004613
5 *80:4 0.00074002
6 *80:5 0.00061516

*RES
1 *80:5 *246:B 0.9
2 *80:4 *80:5 0.481667
3 *80:4 *80:3 0.283333
4 *80:2 *80:3 0.9
5 *240:Y *80:2 0.481667
*END

*D_NET *54 0.00973518

*CONN
*I *187:Y O *C 90 175 *L 0 *D NAND2X1
*I *186:A I *C 102 144 *L 0.00857 *D INV1

*CAP
1 *187:Y 0.00088138
2 *186:A 0.00027405
3 *54:2 0.00322474
4 *54:3 0.00322474
5 *54:4 0.00105369
6 *54:5 0.00044636
7 *54:2 *28:3 0.00025972
8 *54:3 *28:4 0.00025972
9 *54:4 *28:5 5.539e-05
10 *187:Y *187:B 5.539e-05

*RES
1 *54:5 *186:A 0.283333
2 *54:3 *54:5 0.9
3 *54:3 *54:2 3.51333
4 *54:4 *54:2 0.9
5 *187:Y *54:4 0.878333
*END

*D_NET *116 0.0177962

*CONN
*I *207:Y O *C 73 76 *L 0 *D NAND2X1
*I *206:B I *C 106 73 *L 0.0123 *D NAND2X1
*I *192:A I *C 65 75 *L 0.00857 *D INV1
*I *177:B I *C 92 109 *L 0.0123 *D NAND2X1

*CAP
1 *207:Y 0.00192971
2 *206:B 0.00040462
3 *192:A 0.00043099
4 *177:B 0.00040165
5 *116:4 0.00114051
6 *116:5 0.00288358
7 *116:6 0.0045215
8 *116:7 0.00075451
9 *116:8 0.0013925
10 *116:9 0.00151713
11 *116:10 0.0004234
12 *116:11 0.00057693
13 *116:12 0.00037854
14 *116:13 0.00057396
15 *116:5 *93:3 0.00020504
16 *116:6 *93:4 0.00020504
17 *116:6 *93:3 9.11e-06
18 *116:7 *93:4 9.11e-06
19 *116:8 *243:A 1.921e-05
20 *207:Y *93:5 1.921e-05

*RES
1 *116:4 *192:A 0.453333
2 *116:4 *207:Y 0.708333
3 *207:Y *116:8 1.16167
4 *116:12 *116:8 0.9
5 *116:13 *177:B 0.425
6 *116:11 *206:B 0.425
7 *116:12 *116:7 0.226667
8 *116:5 *116:13 0.9
9 *116:10 *116:11 0.9
10 *116:7 *116:6 0.566667
11 *116:6 *116:5 3.11667
12 *116:10 *116:9 0.283333
13 *116:6 *116:9 1.36
*END

*D_NET *28 0.0132161

*CONN
*I *241:Y O *C 111 148 *L 0 *D INV1
*I *187:B I *C 92 178 *L 0.0123 *D NAND2X1
*I *174:B I *C 97 142 *L 0.0123 *D NAND2X1

*CAP
1 *187:B 0.00015984
2 *241:Y 0.00041192
3 *174:B 0.00028718
4 *28:3 0.00263027
5 *28:4 0.00267237
6 *28:5 0.00033215
7 *28:6 0.00058423
8 *28:7 0.00037854
9 *28:8 0.00048028
10 *28:9 0.00090093
11 *28:10 0.0011497
12 *28:11 0.00075534
13 *28:12 0.00019451
14 *28:3 *54:2 0.00025972
15 *28:4 *54:3 0.00025972
16 *28:5 *54:4 5.539e-05
17 *187:B *187:Y 5.539e-05
18 *28:3 *27:4 0.00082433
19 *28:4 *27:3 0.00082433

*RES
1 *28:6 *241:Y 0.425
2 *28:7 *28:6 0.9
3 *28:8 *28:7 0.226667
4 *28:9 *28:8 0.283333
5 *28:10 *28:9 0.68
6 *28:12 *174:B 0.9
7 *187:B *28:5 0.198333
8 *28:10 *28:11 0.566667
9 *28:11 *28:12 0.0283333
10 *28:3 *28:5 0.9
11 *28:4 *28:11 0.226667
12 *28:4 *28:3 3.4
*END

*D_NET *120 0.0058251

*CONN
*I *268:Y O *C 111 115 *L 0 *D AOI22X1
*I *232:A I *C 117 144 *L 0.00857 *D INV1

*CAP
1 *268:Y 0.00027057
2 *232:A 0.00043099
3 *120:2 0.00187046
4 *120:3 0.00177577
5 *120:4 0.00044288
6 *120:5 0.00043113
7 *120:6 0.0006033

*RES
1 *120:6 *232:A 0.453333
2 *120:5 *120:6 0.9
3 *120:2 *120:5 0.283333
4 *120:3 *120:2 1.7
5 *120:4 *120:3 0.9
6 *268:Y *120:4 0.255
*END

*D_NET *103 0.0108139

*CONN
*I *248:B I *C 116 73 *L 0.00962 *D NOR2X1
*I *247:A I *C 102 67 *L 0.00859 *D NOR2X1
*I *244:B I *C 126 73 *L 0.00962 *D NOR2X1
*I *243:Y O *C 87 79 *L 0 *D INV1

*CAP
1 *243:Y 0.00091316
2 *248:B 0.00026937
3 *247:A 0.00028718
4 *244:B 0.00042158
5 *103:4 0.00108547
6 *103:5 0.00064123
7 *103:6 0.00073829
8 *103:7 0.0004234
9 *103:8 0.00056258
10 *103:9 0.00151713
11 *103:10 0.00176496
12 *103:11 0.00113438
13 *103:12 0.0004613
14 *103:13 0.00059389

*RES
1 *243:Y *103:4 0.878333
2 *103:13 *244:B 0.425
3 *103:8 *103:4 0.9
4 *103:7 *247:A 0.9
5 *103:12 *103:13 0.9
6 *103:8 *103:9 0.425
7 *103:7 *103:9 0.283333
8 *103:11 *103:12 0.283333
9 *103:9 *103:10 0.935
10 *103:10 *103:11 0.906667
11 *103:6 *248:B 0.283333
12 *103:5 *103:10 0.9
13 *103:5 *103:6 0.425
*END

*D_NET *119 0.00664083

*CONN
*I *245:A I *C 133 136 *L 0.00859 *D NOR2X1
*I *229:Y O *C 147 103 *L 0 *D INV1

*CAP
1 *229:Y 0.00128804
2 *245:A 0.00028718
3 *119:2 0.00146035
4 *119:3 0.00150832
5 *119:4 0.00136639
6 *119:5 0.00029431
7 *119:6 0.00043624

*RES
1 *119:6 *245:A 0.9
2 *119:5 *119:6 0.283333
3 *119:5 *119:4 0.0283333
4 *119:3 *119:4 1.41667
5 *119:2 *119:3 0.9
6 *119:2 *229:Y 1.33167
*END

*D_NET *20 0.0205447

*CONN
*I *167:Y O *C 130 37 *L 0 *D NAND2X1
*I *166:B I *C 140 142 *L 0.0123 *D NAND2X1

*CAP
1 *167:Y 0.00025061
2 *166:B 0.00026937
3 *20:2 0.00038754
4 *20:3 0.0004846
5 *20:4 0.00517723
6 *20:5 0.00585031
7 *20:6 0.00042292
8 *20:7 0.00274236
9 *20:8 0.00341544
10 *20:8 *105:5 2.278e-05
11 *20:7 *105:6 2.278e-05
12 *20:8 *105:7 0.00029976
13 *20:7 *105:8 0.00029976
14 *20:8 *105:9 0.00044963
15 *20:7 *105:10 0.00044963

*RES
1 *20:3 *166:B 0.283333
2 *20:3 *20:2 0.198333
3 *20:4 *20:2 0.9
4 *20:5 *20:4 5.38333
5 *20:8 *20:5 0.906667
6 *20:7 *20:8 3.11667
7 *20:6 *20:7 0.9
8 *167:Y *20:6 0.255
*END

*D_NET *24 0.0100694

*CONN
*I *169:Y O *C 130 175 *L 0 *D NAND2X1
*I *168:A I *C 145 144 *L 0.00857 *D INV1

*CAP
1 *169:Y 0.0009221
2 *168:A 0.00028288
3 *24:2 0.00109441
4 *24:3 0.00045519
5 *24:4 0.00341212
6 *24:5 0.00341212
7 *24:2 *170:Y 0.00024531
8 *169:Y *169:B 0.00024531

*RES
1 *24:3 *168:A 0.283333
2 *24:5 *24:3 0.9
3 *24:5 *24:4 3.51333
4 *24:2 *24:4 0.9
5 *169:Y *24:2 1.105
*END

*D_NET *22 0.00578411

*CONN
*I *230:Y O *C 138 34 *L 0 *D INV1
*I *185:B I *C 147 40 *L 0.0123 *D NAND2X1
*I *167:A I *C 133 46 *L 0.0113 *D NAND2X1

*CAP
1 *230:Y 0.00067744
2 *167:A 0.00043467
3 *185:B 0.00028718
4 *22:3 0.00041508
5 *22:4 0.00044858
6 *22:5 0.00070101
7 *22:6 0.00129968
8 *22:7 0.00111564
9 *22:8 0.00040483

*RES
1 *22:8 *185:B 0.9
2 *22:7 *22:8 0.255
3 *22:7 *22:6 0.85
4 *22:5 *22:6 0.453333
5 *167:A *230:Y 0.453333
6 *22:4 *22:5 0.283333
7 *230:Y *22:3 0.255
8 *22:3 *22:4 0.9
*END

*D_NET *43 0.00989035

*CONN
*I *196:Y O *C 176 76 *L 0 *D NAND2X1
*I *194:A I *C 174 115 *L 0.0113 *D NAND2X1

*CAP
1 *196:Y 0.00047383
2 *194:A 0.00028718
3 *43:2 0.00064614
4 *43:3 0.0031583
5 *43:4 0.00317411
6 *43:5 0.00035225
7 *43:4 *118:4 0.00089927
8 *43:3 *118:5 0.00089927

*RES
1 *43:5 *194:A 0.9
2 *43:4 *43:5 0.198333
3 *43:3 *43:4 3.68333
4 *43:2 *43:3 0.9
5 *43:2 *196:Y 0.481667
*END

*D_NET *118 0.0180129

*CONN
*I *213:Y O *C 135 76 *L 0 *D NAND2X1
*I *205:A I *C 150 67 *L 0.0113 *D NAND2X1
*I *165:A I *C 176 115 *L 0.0113 *D NAND2X1

*CAP
1 *205:A 0.00176017
2 *165:A 0.00026937
3 *213:Y 0.00084287
4 *118:3 0.00176017
5 *118:4 0.00362793
6 *118:5 0.00409068
7 *118:6 0.00079919
8 *118:7 0.00041329
9 *118:8 0.00051035
10 *118:9 0.00101518
11 *118:10 0.00056258
12 *118:11 0.00056258
13 *118:4 *43:4 0.00089927
14 *118:5 *43:3 0.00089927

*RES
1 *118:8 *165:A 0.283333
2 *213:Y *118:9 0.878333
3 *118:7 *118:8 0.255
4 *118:10 *118:9 0.9
5 *118:4 *118:7 0.9
6 *118:10 *118:11 0.425
7 *118:5 *118:4 4.25
8 *205:A *118:11 0.9
9 *118:6 *118:5 0.68
10 *205:A *118:3 1.615
11 *118:3 *118:6 0.9
*END

*D_NET *29 0.0090915

*CONN
*I *197:Y O *C 200 34 *L 0 *D INV1
*I *196:B I *C 178 73 *L 0.0123 *D NAND2X1

*CAP
1 *197:Y 0.00150582
2 *196:B 0.00019801
3 *29:2 0.00222647
4 *29:3 0.00222647
5 *29:4 0.00167813
6 *29:5 0.00037032
7 *197:Y *50:2 0.00044314
8 *29:4 *185:Y 0.00044314

*RES
1 *196:B *29:5 0.198333
2 *29:2 *29:5 0.9
3 *29:3 *29:2 2.26667
4 *29:4 *29:3 0.9
5 *29:4 *197:Y 1.785
*END

*D_NET *117 0.0241604

*CONN
*I *264:B I *C 195 109 *L 0.0183 *D AOI22X1
*I *248:Y O *C 118 79 *L 0 *D NOR2X1
*I *206:A I *C 111 67 *L 0.0113 *D NAND2X1

*CAP
1 *264:B 0.00116741
2 *248:Y 0.0010154
3 *206:A 0.00026151
4 *117:3 0.00133972
5 *117:4 0.00094361
6 *117:5 0.00053088
7 *117:6 0.00051347
8 *117:7 0.00164199
9 *117:8 0.00164199
10 *117:9 0.00147624
11 *117:10 0.00147624
12 *117:11 0.00607599
13 *117:12 0.00607599

*RES
1 *117:3 *264:B 1.105
2 *117:9 *117:3 0.9
3 *117:10 *117:9 1.41667
4 *117:12 *117:10 0.9
5 *117:11 *117:12 5.44
6 *117:7 *117:11 0.9
7 *117:8 *117:7 1.41667
8 *117:4 *117:8 0.9
9 *206:A *117:5 0.255
10 *248:Y *117:4 0.708333
11 *117:6 *117:5 0.283333
12 *117:6 *248:Y 0.283333
*END

*D_NET *8 0.00913101

*CONN
*P *8 I *C 198 225 *L 0
*I *140:A I *C 198 178 *L 0.0184 *D BUFX8

*CAP
1 *8 0.00264122
2 *140:A 0.00026776
3 *8:2 0.00285154
4 *8:3 0.00148626
5 *8:4 0.00144416
6 *8:5 0.00044007

*RES
1 *8:5 *140:A 0.283333
2 *8:4 *8:5 0.9
3 *8:4 *8:3 1.41667
4 *8:3 *8:2 0.226667
5 *8:2 *8 2.9325
*END

*D_NET *7 0.0124564

*CONN
*P *7 O *C 205 0 *L 0
*I *157:Y O *C 205 76 *L 0 *D NAND2X1

*CAP
1 *157:Y 0.00025062
2 *7 0.0028964
3 *7:2 0.00042293
4 *7:3 0.00286881
5 *7:4 0.00291091
6 *7:5 0.00310672

*RES
1 *7 *7:5 3.21583
2 *7:4 *7:5 0.226667
3 *7:4 *7:3 2.83333
4 *7:2 *7:3 0.9
5 *7:2 *157:Y 0.255
*END

*D_NET *41 0.00604092

*CONN
*I *198:Y O *C 226 37 *L 0 *D NAND2X1
*I *197:A I *C 202 38 *L 0.00857 *D INV1

*CAP
1 *198:Y 0.00088963
2 *197:A 0.00026975
3 *41:2 0.00152055
4 *41:3 0.00063715
5 *41:4 0.00106194
6 *41:5 0.00121984
7 *41:6 0.00044206

*RES
1 *197:A *41:6 0.283333
2 *41:3 *41:6 0.9
3 *41:3 *41:2 0.453333
4 *41:2 *41:5 1.13333
5 *41:4 *41:5 0.9
6 *41:4 *198:Y 0.878333
*END

*D_NET *48 0.0140358

*CONN
*I *179:Y O *C 214 76 *L 0 *D NAND2X1
*I *178:A I *C 205 136 *L 0.0113 *D NAND2X1

*CAP
1 *179:Y 0.00072537
2 *178:A 0.00024277
3 *48:2 0.00089768
4 *48:3 0.00587745
5 *48:4 0.00587745
6 *48:5 0.00041508

*RES
1 *178:A *48:5 0.255
2 *48:4 *48:5 0.9
3 *48:3 *48:4 6.23333
4 *48:2 *48:3 0.9
5 *48:2 *179:Y 0.708333
*END

*D_NET *113 0.005413

*CONN
*I *181:Y O *C 207 34 *L 0 *D INV1
*I *179:A I *C 212 67 *L 0.0113 *D NAND2X1

*CAP
1 *181:Y 0.00024454
2 *179:A 0.00027852
3 *113:2 0.00041685
4 *113:3 0.00201113
5 *113:4 0.00201113
6 *113:5 0.00045083

*RES
1 *113:5 *179:A 0.255
2 *113:3 *113:5 0.9
3 *113:4 *113:3 1.98333
4 *113:2 *113:4 0.9
5 *181:Y *113:2 0.255
*END

*D_NET *60 0.0100829

*CONN
*I *173:Y O *C 222 145 *L 0 *D NAND2X1
*I *172:A I *C 212 184 *L 0.0113 *D NAND2X1

*CAP
1 *173:Y 0.0006316
2 *172:A 0.00028718
3 *60:2 0.00080391
4 *60:3 0.00399606
5 *60:4 0.00401187
6 *60:5 0.00035225

*RES
1 *60:5 *172:A 0.9
2 *60:5 *60:4 0.198333
3 *60:3 *60:4 4.25
4 *60:2 *60:3 0.9
5 *60:2 *173:Y 0.651667
*END

*D_NET *13 0.0143911

*CONN
*P *13 O *C 231 0 *L 0
*I *200:Y O *C 234 79 *L 0 *D INV1
*I *199:A I *C 232 38 *L 0.00857 *D INV1

*CAP
1 *199:A 0.00043099
2 *200:Y 0.00019183
3 *13 0.00354348
4 *13:3 0.00073163
5 *13:4 0.00047295
6 *13:5 0.00037854
7 *13:6 0.00036414
8 *13:7 0.00188321
9 *13:8 0.00546879
10 *13:7 *11:2 0.00015948
11 *13:8 *11:3 0.00015948
12 *13:8 *11:4 2.195e-05
13 *13 *11:5 2.195e-05
14 *13:8 *11:6 0.00028136
15 *13 *11 0.00028136

*RES
1 *13:6 *200:Y 0.198333
2 *13:7 *13:6 0.9
3 *199:A *13:3 0.453333
4 *13 *13:8 4.06583
5 *13:8 *13:7 1.98333
6 *13:4 *13:3 0.283333
7 *13:5 *13:8 0.226667
8 *13:5 *13:4 0.9
*END

*D_NET *11 0.0198938

*CONN
*P *11 O *C 236 0 *L 0
*I *250:Y O *C 234 103 *L 0 *D NOR2X1

*CAP
1 *11 0.00302573
2 *250:Y 0.00019183
3 *11:2 0.00533869
4 *11:3 0.00538079
5 *11:4 0.00071548
6 *11:5 0.00071548
7 *11:6 0.00323605
8 *11:7 0.00036414
9 *11:2 *13:7 0.00015948
10 *11:3 *13:8 0.00015948
11 *11:4 *13:8 2.195e-05
12 *11:5 *13 2.195e-05
13 *11:6 *13:8 0.00028136
14 *11 *13 0.00028136

*RES
1 *11 *11:6 3.49917
2 *11:6 *11:5 0.226667
3 *11:5 *11:4 0.566667
4 *11:3 *11:4 0.226667
5 *11:3 *11:2 5.66667
6 *11:7 *11:2 0.9