*SPEF "IEEE 1481-1998"
*DESIGN "controller"
*DATE "Thu Nov 20 18:16:56 2014"
*VENDOR "Cadence Design Systems, Inc."
*PROGRAM "Encounter"
*VERSION "13.13-s017_1"
*DESIGN_FLOW "COUPLING C" "PIN_CAP NONE" "NAME_SCOPE LOCAL"
*DIVIDER /
*DELIMITER :
*BUS_DELIMITER []
*T_UNIT 1 NS
*C_UNIT 1 PF
*R_UNIT 1 OHM
*L_UNIT 1 HENRY

// MMMC spef file for corner 'typical_rc'

*NAME_MAP

*1 FE_OFN0_aluop_1_
*2 aluop[0]
*3 aluop[1]
*4 alusrca
*5 alusrcb[0]
*6 alusrcb[1]
*7 clk
*8 clk__L1_N0
*9 clk__L1_N1
*10 iord
*11 irwrite[0]
*12 irwrite[1]
*13 irwrite[2]
*14 irwrite[3]
*15 memread
*16 memtoreg
*17 memwrite
*18 n1
*19 n102
*20 n103
*21 n104
*22 n105
*23 n106
*24 n107
*25 n108
*26 n109
*27 n111
*28 n112
*29 n114
*30 n115
*31 n116
*32 n117
*33 n118
*34 n119
*35 n121
*36 n124
*37 n125
*38 n126
*39 n127
*40 n128
*41 n129
*42 n130
*43 n132
*44 n133
*45 n134
*46 n135
*47 n136
*48 n137
*49 n139
*50 n140
*51 n141
*52 n142
*53 n143
*54 n144
*55 n145
*56 n146
*57 n147
*58 n148
*59 n149
*60 n150
*61 n151
*62 n152
*63 n154
*64 n155
*65 n156
*66 n157
*67 n159
*68 n160
*69 n161
*70 n162
*71 n163
*72 n164
*73 n165
*74 n166
*75 n168
*76 n170
*77 n173
*78 n174
*79 n175
*80 n176
*81 n181
*82 n182
*83 n183
*84 n184
*85 n185
*86 n186
*87 n187
*88 n188
*89 n189
*90 n190
*91 n191
*92 n193
*93 n194
*94 n195
*95 n196
*96 n197
*97 n198
*98 n199
*99 n20
*100 n200
*101 n201
*102 n203
*103 n204
*104 n205
*105 n207
*106 n208
*107 n210
*108 n211
*109 n212
*110 n213
*111 n215
*112 n216
*113 n217
*114 n218
*115 n219
*116 n220
*117 n221
*118 n222
*119 n223
*120 n224
*121 n3
*122 n7
*123 op[0]
*124 op[1]
*125 op[2]
*126 op[3]
*127 op[4]
*128 op[5]
*129 pcen
*130 pcsource[0]
*131 pcsource[1]
*132 regdst
*133 regwrite
*134 reset
*135 state[0]
*136 state[1]
*137 state[2]
*138 state[3]
*139 zero
*140 clk__L1_I1
*141 clk__L1_I0
*142 FE_OFC0_aluop_1_
*143 state_reg_1_
*144 state_reg_3_
*145 state_reg_2_
*146 state_reg_0_
*147 U120
*148 U121
*149 U122
*150 U123
*151 U124
*152 U125
*153 U126
*154 U127
*155 U130
*156 U131
*157 U132
*158 U134
*159 U135
*160 U137
*161 U138
*162 U140
*163 U141
*164 U143
*165 U144
*166 U146
*167 U147
*168 U148
*169 U149
*170 U150
*171 U151
*172 U154
*173 U155
*174 U156
*175 U159
*176 U160
*177 U161
*178 U162
*179 U164
*180 U165
*181 U166
*182 U167
*183 U168
*184 U170
*185 U171
*186 U174
*187 U175
*188 U176
*189 U177
*190 U178
*191 U179
*192 U180
*193 U181
*194 U182
*195 U183
*196 U184
*197 U185
*198 U186
*199 U187
*200 U188
*201 U189
*202 U190
*203 U191
*204 U192
*205 U193
*206 U194
*207 U195
*208 U196
*209 U197
*210 U198
*211 U199
*212 U201
*213 U202
*214 U203
*215 U204
*216 U205
*217 U206
*218 U207
*219 U208
*220 U209
*221 U211
*222 U212
*223 U213
*224 U214
*225 U215
*226 U216
*227 U217
*228 U218
*229 U219
*230 U221
*231 U222
*232 U223
*233 U224
*234 U225
*235 U226
*236 U227
*237 U229
*238 U231
*239 U232
*240 U233
*241 U234
*242 U235
*243 U237
*244 U238
*245 U239
*246 U240
*247 U241
*248 U242
*249 U243
*250 U244
*251 U245
*252 U246
*253 U247
*254 U248
*255 U249
*256 U250
*257 U251
*258 U252
*259 U253
*260 U254
*261 U255
*262 U256
*263 U258
*264 U259
*265 U260
*266 U261
*267 U262


*PORTS

*7 I *C 303.6 0
*134 I *C 171.6 0
*128 I *C 0 163.5
*127 I *C 49.2 0
*126 I *C 0 142.5
*125 I *C 87.6 0
*124 I *C 82.8 0
*123 I *C 42 0
*139 I *C 152.4 252
*15 O *C 174 252
*17 O *C 262.8 252
*4 O *C 90 252
*16 O *C 313.2 252
*10 O *C 241.2 252
*129 O *C 159.6 252
*133 O *C 337.2 252
*132 O *C 397.5 172.5
*131 O *C 212.4 252
*130 O *C 147.6 252
*6 O *C 138 252
*5 O *C 164.4 252
*3 O *C 169.2 252
*2 O *C 104.4 252
*14 O *C 222 252
*13 O *C 219.6 0
*12 O *C 267.6 252
*11 O *C 248.4 0


*D_NET *54 0.00221062

*CONN
*I *187:Y O *C 128 37 *L 0 *D NAND2X1
*I *186:A I *C 136 38 *L 0.00857 *D INV1

*CAP
1 *187:Y 0.00040165
2 *186:A 0.00027237
3 *54:2 0.00083294
4 *54:3 0.00070366

*RES
1 *54:3 *186:A 0.283333
2 *54:3 *54:2 0.453333
3 *187:Y *54:2 0.425
*END

*D_NET *24 0.002257

*CONN
*I *169:Y O *C 214 37 *L 0 *D NAND2X1
*I *168:A I *C 222 38 *L 0.00857 *D INV1

*CAP
1 *169:Y 0.00069721
2 *168:A 0.00043129
3 *24:2 0.0011285

*RES
1 *168:A *24:2 0.453333
2 *169:Y *24:2 0.708333
*END

*D_NET *65 0.00086318

*CONN
*I *219:Y O *C 51 34 *L 0 *D INV1
*I *217:A I *C 56 46 *L 0.0113 *D NAND2X1

*CAP
1 *219:Y 0.00043159
2 *217:A 0.00043159

*RES
1 *219:Y *217:A 0.453333
*END

*D_NET *38 0.00098874

*CONN
*I *190:Y O *C 85 34 *L 0 *D INV1
*I *189:A I *C 90 46 *L 0.0113 *D NAND2X1

*CAP
1 *190:Y 0.00049437
2 *189:A 0.00049437

*RES
1 *190:Y *189:A 0.51
*END

*D_NET *36 0.00172636

*CONN
*I *188:Y O *C 116 34 *L 0 *D INV1
*I *187:A I *C 126 46 *L 0.0113 *D NAND2X1

*CAP
1 *188:Y 0.00086318
2 *187:A 0.00086318

*RES
1 *188:Y *187:A 0.906667
*END

*D_NET *107 0.0019063

*CONN
*I *264:Y O *C 238 34 *L 0 *D NOR2X1
*I *171:A I *C 246 46 *L 0.0113 *D NAND2X1

*CAP
1 *264:Y 0.00042945
2 *171:A 0.00025415
3 *107:2 0.000699
4 *107:3 0.0005237

*RES
1 *107:3 *171:A 0.255
2 *107:2 *107:3 0.283333
3 *264:Y *107:2 0.425
*END

*D_NET *53 0.00153904

*CONN
*I *193:Y O *C 92 76 *L 0 *D NAND2X1
*I *191:A I *C 87 67 *L 0.0113 *D NAND2X1

*CAP
1 *193:Y 0.00049997
2 *191:A 0.00026955
3 *53:2 0.00076952

*RES
1 *191:A *53:2 0.283333
2 *53:2 *193:Y 0.51
*END

*D_NET *64 0.00237902

*CONN
*I *215:Y O *C 58 79 *L 0 *D INV1
*I *214:B I *C 66 73 *L 0.0123 *D NAND2X1

*CAP
1 *215:Y 0.00045857
2 *214:B 0.00019183
3 *64:2 0.00099768
4 *64:3 0.00073094

*RES
1 *64:3 *214:B 0.198333
2 *64:2 *64:3 0.566667
3 *215:Y *64:2 0.481667
*END

*D_NET *40 0.00118688

*CONN
*I *192:Y O *C 75 79 *L 0 *D INV1
*I *191:B I *C 82 73 *L 0.0123 *D NAND2X1

*CAP
1 *192:Y 0.00059344
2 *191:B 0.00059344

*RES
1 *192:Y *191:B 0.623333
*END

*D_NET *98 0.00118688

*CONN
*I *250:B I *C 241 73 *L 0.00962 *D NOR2X1
*I *238:Y O *C 234 79 *L 0 *D INV1

*CAP
1 *238:Y 0.00059344
2 *250:B 0.00059344

*RES
1 *238:Y *250:B 0.623333
*END

*D_NET *45 0.00223452

*CONN
*I *229:A I *C 184 75 *L 0.00857 *D INV1
*I *194:Y O *C 176 76 *L 0 *D NAND2X1

*CAP
1 *194:Y 0.00041192
2 *229:A 0.00027405
3 *45:2 0.00084321
4 *45:3 0.00070534

*RES
1 *45:3 *229:A 0.283333
2 *45:2 *45:3 0.453333
3 *194:Y *45:2 0.425
*END

*D_NET *93 0.0013095

*CONN
*I *261:Y O *C 66 103 *L 0 *D NOR2X1
*I *243:A I *C 71 107 *L 0.00857 *D INV1

*CAP
1 *261:Y 0.0002423
2 *243:A 0.00025072
3 *93:2 0.00040403
4 *93:3 0.00041245

*RES
1 *93:3 *243:A 0.283333
2 *93:3 *93:2 0.17
3 *261:Y *93:2 0.255
*END

*D_NET *46 0.0013089

*CONN
*I *206:Y O *C 106 106 *L 0 *D NAND2X1
*I *205:B I *C 114 109 *L 0.0123 *D NAND2X1

*CAP
1 *206:Y 0.00065445
2 *205:B 0.00065445

*RES
1 *206:Y *205:B 0.68
*END

*D_NET *29 0.00289182

*CONN
*I *197:Y O *C 188 103 *L 0 *D INV1
*I *196:B I *C 171 109 *L 0.0123 *D NAND2X1

*CAP
1 *197:Y 0.00144591
2 *196:B 0.00144591

*RES
1 *196:B *197:Y 1.53
*END

*D_NET *41 0.00440308

*CONN
*I *198:Y O *C 210 106 *L 0 *D NAND2X1
*I *197:A I *C 190 107 *L 0.00857 *D INV1

*CAP
1 *198:Y 0.0015005
2 *197:A 0.00026975
3 *41:2 0.00193179
4 *41:3 0.00070104

*RES
1 *197:A *41:3 0.283333
2 *41:3 *41:2 0.453333
3 *41:2 *198:Y 1.55833
*END

*D_NET *30 0.00345272

*CONN
*I *204:Y O *C 147 103 *L 0 *D INV1
*I *196:A I *C 166 115 *L 0.0113 *D NAND2X1

*CAP
1 *204:Y 0.00172636
2 *196:A 0.00172636

*RES
1 *204:Y *196:A 1.81333
*END

*D_NET *55 0.001538

*CONN
*I *177:Y O *C 90 106 *L 0 *D NAND2X1
*I *175:A I *C 85 115 *L 0.0113 *D NAND2X1

*CAP
1 *177:Y 0.00049945
2 *175:A 0.00026955
3 *55:2 0.000769

*RES
1 *175:A *55:2 0.283333
2 *55:2 *177:Y 0.51
*END

*D_NET *32 0.00512514

*CONN
*I *210:Y O *C 212 148 *L 0 *D INV1
*I *149:B I *C 183 136 *L 0.0242 *D NAND2X2

*CAP
1 *210:Y 0.00256257
2 *149:B 0.00256257

*RES
1 *149:B *210:Y 2.69167
*END

*D_NET *95 0.0015277

*CONN
*I *244:Y O *C 102 148 *L 0 *D NOR2X1
*I *213:A I *C 106 136 *L 0.0113 *D NAND2X1

*CAP
1 *244:Y 0.0004943
2 *213:A 0.00026955
3 *95:2 0.00076385

*RES
1 *213:A *95:2 0.283333
2 *244:Y *95:2 0.51
*END

*D_NET *59 0.00118688

*CONN
*I *208:Y O *C 54 148 *L 0 *D INV1
*I *207:B I *C 61 142 *L 0.0123 *D NAND2X1

*CAP
1 *208:Y 0.00059344
2 *207:B 0.00059344

*RES
1 *208:Y *207:B 0.623333
*END

*D_NET *51 0.00277324

*CONN
*I *231:Y O *C 106 172 *L 0 *D INV1
*I *182:B I *C 92 178 *L 0.0123 *D NAND2X1

*CAP
1 *231:Y 0.001078
2 *182:B 0.001078
3 *231:Y *52:2 0.00030862
4 *182:B *182:Y 0.00030862

*RES
1 *182:B *231:Y 1.30333
*END

*D_NET *1 0.00096396

*CONN
*I *253:Y O *C 294 172 *L 0 *D NOR2X1
*I *142:A I *C 298 178 *L 0.0113 *D BUFX4

*CAP
1 *253:Y 0.00048198
2 *142:A 0.00048198

*RES
1 *253:Y *142:A 0.51
*END

*D_NET *69 0.00117816

*CONN
*I *226:Y O *C 327 172 *L 0 *D INV1
*I *155:B I *C 334 178 *L 0.0123 *D NAND2X1

*CAP
1 *226:Y 0.00058908
2 *155:B 0.00058908

*RES
1 *226:Y *155:B 0.623333
*END

*D_NET *113 0.0052656

*CONN
*I *181:Y O *C 114 172 *L 0 *D INV1
*I *179:A I *C 142 184 *L 0.0113 *D NAND2X1

*CAP
1 *181:Y 0.0026328
2 *179:A 0.0026328

*RES
1 *181:Y *179:A 2.72
*END

*D_NET *35 0.00086318

*CONN
*I *223:Y O *C 217 172 *L 0 *D INV1
*I *220:A I *C 212 184 *L 0.0113 *D NAND2X1

*CAP
1 *223:Y 0.00043159
2 *220:A 0.00043159

*RES
1 *220:A *223:Y 0.453333
*END

*D_NET *80 0.00130604

*CONN
*I *246:B I *C 37 211 *L 0.00962 *D NOR2X1
*I *240:Y O *C 44 217 *L 0 *D INV1

*CAP
1 *240:Y 0.00065302
2 *246:B 0.00065302

*RES
1 *246:B *240:Y 0.623333
*END

*D_NET *21 0.00248164

*CONN
*I *239:Y O *C 51 217 *L 0 *D INV1
*I *167:B I *C 66 211 *L 0.0123 *D NAND2X1

*CAP
1 *239:Y 0.00124082
2 *167:B 0.00124082

*RES
1 *239:Y *167:B 1.30333
*END

*D_NET *88 0.00118688

*CONN
*I *235:B I *C 171 211 *L 0.0123 *D NAND2X1
*I *160:Y O *C 178 217 *L 0 *D INV1

*CAP
1 *160:Y 0.00059344
2 *235:B 0.00059344

*RES
1 *235:B *160:Y 0.623333
*END

*D_NET *72 0.004208

*CONN
*I *227:Y O *C 212 217 *L 0 *D INV1
*I *161:B I *C 188 211 *L 0.0123 *D NAND2X1

*CAP
1 *227:Y 0.002104
2 *161:B 0.002104

*RES
1 *161:B *227:Y 2.21
*END

*D_NET *75 0.00291324

*CONN
*I *152:Y O *C 260 217 *L 0 *D INV1
*I *151:B I *C 243 211 *L 0.0123 *D NAND2X1

*CAP
1 *152:Y 0.00145662
2 *151:B 0.00145662

*RES
1 *151:B *152:Y 1.53
*END

*D_NET *67 0.00205004

*CONN
*I *154:Y O *C 322 217 *L 0 *D INV1
*I *153:B I *C 334 211 *L 0.0123 *D NAND2X1

*CAP
1 *154:Y 0.00102502
2 *153:B 0.00102502

*RES
1 *154:Y *153:B 1.07667
*END

*D_NET *73 0.00127116

*CONN
*I *161:Y O *C 186 214 *L 0 *D NAND2X1
*I *160:A I *C 180 213 *L 0.00857 *D INV1

*CAP
1 *161:Y 0.00024665
2 *160:A 0.00028111
3 *73:2 0.00035447
4 *73:3 0.00038893

*RES
1 *160:A *73:3 0.283333
2 *73:3 *73:2 0.113333
3 *73:2 *161:Y 0.255
*END

*D_NET *22 0.00413622

*CONN
*I *230:Y O *C 85 217 *L 0 *D INV1
*I *185:B I *C 75 211 *L 0.0123 *D NAND2X1
*I *167:A I *C 70 205 *L 0.0113 *D NAND2X1

*CAP
1 *185:B 0.00021662
2 *230:Y 0.00041694
3 *167:A 0.00024584
4 *22:3 0.00048617
5 *22:4 0.00041694
6 *22:5 0.00042065
7 *22:6 0.00042065
8 *22:7 0.00022896
9 *22:8 0.00076806
10 *22:9 0.00051539

*RES
1 *22:4 *230:Y 0.425
2 *22:5 *22:4 0.9
3 *22:6 *22:5 0.453333
4 *167:A *22:9 0.255
5 *22:7 *22:6 0.9
6 *22:9 *22:8 0.283333
7 *22:8 *22:7 0.226667
8 *22:8 *22:3 0.283333
9 *22:3 *185:B 0.198333
*END

*D_NET *25 0.00250982

*CONN
*I *170:Y O *C 231 34 *L 0 *D INV1
*I *169:B I *C 217 40 *L 0.0123 *D NAND2X1

*CAP
1 *169:B 0.00021523
2 *170:Y 0.00040871
3 *25:2 0.00021523
4 *25:3 0.00040871
5 *25:4 0.00063097
6 *25:5 0.00063097

*RES
1 *169:B *25:2 0.198333
2 *25:5 *25:2 0.9
3 *25:5 *25:4 0.68
4 *25:3 *25:4 0.9
5 *25:3 *170:Y 0.425
*END

*D_NET *52 0.00505648

*CONN
*I *182:Y O *C 90 175 *L 0 *D NAND2X1
*I *181:A I *C 112 176 *L 0.00857 *D INV1

*CAP
1 *182:Y 0.00110478
2 *181:A 0.00043129
3 *52:2 0.00110478
4 *52:3 0.00068355
5 *52:4 0.00068355
6 *52:5 0.00043129
7 *52:2 *231:Y 0.00030862
8 *182:Y *182:B 0.00030862

*RES
1 *181:A *52:5 0.453333
2 *52:4 *52:5 0.9
3 *52:3 *52:4 0.736667
4 *52:2 *52:3 0.9
5 *182:Y *52:2 1.33167
*END

*D_NET *74 0.00317638

*CONN
*I *233:Y O *C 250 103 *L 0 *D INV1
*I *164:A I *C 236 115 *L 0.0113 *D NAND2X1

*CAP
1 *233:Y 0.00065134
2 *164:A 0.00026955
3 *74:2 0.00065134
4 *74:3 0.00042065
5 *74:4 0.00042065
6 *74:5 0.00024665
7 *74:6 0.0005162

*RES
1 *164:A *74:6 0.283333
2 *74:6 *74:5 0.255
3 *74:4 *74:5 0.9
4 *74:4 *74:3 0.453333
5 *74:2 *74:3 0.9
6 *74:2 *233:Y 0.651667
*END

*D_NET *76 0.00362108

*CONN
*I *222:Y O *C 250 148 *L 0 *D INV1
*I *221:B I *C 267 142 *L 0.0123 *D NAND2X1
*I *211:B I *C 258 142 *L 0.0123 *D NAND2X1

*CAP
1 *221:B 0.00042432
2 *222:Y 0.00066973
3 *211:B 0.00026955
4 *76:3 0.00044694
5 *76:4 0.00044694
6 *76:5 0.00042432
7 *76:6 0.00093928

*RES
1 *222:Y *76:6 0.68
2 *76:5 *221:B 0.425
3 *76:6 *211:B 0.283333
4 *76:4 *76:5 0.9
5 *76:3 *211:B 0.9
6 *76:3 *76:4 0.481667
*END

*D_NET *77 0.00246982

*CONN
*I *225:Y O *C 349 148 *L 0 *D INV1
*I *224:B I *C 358 142 *L 0.0123 *D NAND2X1

*CAP
1 *225:Y 0.00041512
2 *224:B 0.00018882
3 *77:2 0.00041512
4 *77:3 0.00063097
5 *77:4 0.00063097
6 *77:5 0.00018882

*RES
1 *224:B *77:5 0.198333
2 *77:4 *77:5 0.9
3 *77:3 *77:4 0.68
4 *77:2 *77:3 0.9
5 *225:Y *77:2 0.425
*END

*D_NET *79 0.00380194

*CONN
*I *245:B I *C 195 40 *L 0.00962 *D NOR2X1
*I *232:Y O *C 178 34 *L 0 *D INV1

*CAP
1 *232:Y 0.00105477
2 *245:B 0.00021523
3 *79:2 0.00105477
4 *79:3 0.00063097
5 *79:4 0.00063097
6 *79:5 0.00021523

*RES
1 *245:B *79:5 0.198333
2 *79:4 *79:5 0.9
3 *79:3 *79:4 0.68
4 *79:2 *79:3 0.9
5 *232:Y *79:2 1.105
*END

*D_NET *106 0.0035915

*CONN
*I *246:Y O *C 34 217 *L 0 *D NOR2X1
*I *239:A I *C 49 213 *L 0.00857 *D INV1

*CAP
1 *246:Y 0.00068091
2 *239:A 0.00043129
3 *106:2 0.00068091
4 *106:3 0.00068355
5 *106:4 0.00068355
6 *106:5 0.00043129

*RES
1 *106:5 *239:A 0.453333
2 *106:4 *106:5 0.9
3 *106:3 *106:4 0.736667
4 *106:2 *106:3 0.9
5 *246:Y *106:2 0.651667
*END

*D_NET *123 0.00802121

*CONN
*P *123 I *C 42 0 *L 0
*I *218:A I *C 42 38 *L 0.00857 *D INV1

*CAP
1 *123 0.0029913
2 *218:A 0.00026975
3 *123:2 0.00320162
4 *123:3 0.00057929
5 *123:4 0.00053719
6 *123:5 0.00044206

*RES
1 *123:5 *218:A 0.283333
2 *123:4 *123:5 0.9
3 *123:3 *123:4 0.396667
4 *123:3 *123:2 0.226667
5 *123 *123:2 3.21583
*END

*D_NET *127 0.00799003

*CONN
*P *127 I *C 49 0 *L 0
*I *219:A I *C 49 38 *L 0.00857 *D INV1

*CAP
1 *127 0.0029913
2 *219:A 0.00025416
3 *127:2 0.00320162
4 *127:3 0.00053719
5 *127:4 0.00057929
6 *127:5 0.00042647

*RES
1 *127:5 *219:A 0.283333
2 *127:3 *127:5 0.9
3 *127:4 *127:3 0.396667
4 *127:4 *127:2 0.226667
5 *127 *127:2 3.21583
*END

*D_NET *66 0.00428641

*CONN
*I *218:Y O *C 44 34 *L 0 *D INV1
*I *217:B I *C 61 40 *L 0.0123 *D NAND2X1

*CAP
1 *218:Y 0.00041215
2 *217:B 0.00028718
3 *66:2 0.00058446
4 *66:3 0.0004234
5 *66:4 0.00133309
6 *66:5 0.00124613

*RES
1 *66:5 *217:B 0.9
2 *66:4 *66:5 1.16167
3 *66:4 *66:3 0.283333
4 *66:2 *66:3 0.9
5 *218:Y *66:2 0.425
*END

*D_NET *104 0.00803154

*CONN
*I *261:B I *C 63 109 *L 0.00962 *D NOR2X1
*I *214:Y O *C 68 76 *L 0 *D NAND2X1
*I *176:A I *C 58 107 *L 0.00857 *D INV1

*CAP
1 *214:Y 0.00030983
2 *261:B 0.00021963
3 *176:A 0.00028288
4 *104:3 0.00048214
5 *104:4 0.00038136
6 *104:5 0.00227663
7 *104:6 0.00227663
8 *104:7 0.00038769
9 *104:8 0.00059276
10 *104:9 0.00082199

*RES
1 *104:3 *214:Y 0.283333
2 *104:5 *104:3 0.9
3 *104:5 *104:6 2.26667
4 *104:7 *104:6 0.9
5 *104:8 *104:7 0.226667
6 *104:8 *104:9 0.396667
7 *176:A *104:9 0.283333
8 *104:9 *104:4 0.17
9 *104:4 *261:B 0.198333
*END

*D_NET *109 0.00474415

*CONN
*I *265:A I *C 73 46 *L 0.00859 *D NOR2X1
*I *217:Y O *C 58 37 *L 0 *D NAND2X1
*I *216:A I *C 66 38 *L 0.00857 *D INV1

*CAP
1 *265:A 0.00027455
2 *217:Y 0.00061586
3 *216:A 0.00043129
4 *109:3 0.00058887
5 *109:4 0.00071373
6 *109:5 0.0004613
7 *109:6 0.00044686
8 *109:7 0.00072685
9 *109:8 0.00048484

*RES
1 *109:6 *265:A 0.255
2 *216:A *109:8 0.453333
3 *109:5 *109:6 0.9
4 *217:Y *109:7 0.651667
5 *109:7 *109:8 0.0566667
6 *109:4 *109:5 0.283333
7 *109:3 *109:7 0.9
8 *109:3 *109:4 0.453333
*END

*D_NET *63 0.00631162

*CONN
*I *216:Y O *C 68 34 *L 0 *D INV1
*I *214:A I *C 70 67 *L 0.0113 *D NAND2X1

*CAP
1 *216:Y 0.00042795
2 *214:A 0.00023679
3 *63:2 0.00231876
4 *63:3 0.00231876
5 *63:4 0.00060026
6 *63:5 0.0004091

*RES
1 *214:A *63:5 0.255
2 *63:2 *63:5 0.9
3 *63:3 *63:2 2.26667
4 *63:4 *63:3 0.9
5 *216:Y *63:4 0.425
*END

*D_NET *58 0.0111008

*CONN
*I *247:B I *C 80 178 *L 0.00962 *D NOR2X1
*I *209:Y O *C 70 148 *L 0 *D INV1
*I *207:A I *C 66 136 *L 0.0113 *D NAND2X1

*CAP
1 *209:Y 0.00067998
2 *207:A 0.00043159
3 *247:B 0.00070722
4 *58:3 0.0004207
5 *58:4 0.00301669
6 *58:5 0.00301669
7 *58:6 0.00087953
8 *58:5 *20:3 0.0009742
9 *58:4 *20:4 0.0009742

*RES
1 *58:6 *247:B 0.651667
2 *58:5 *58:6 0.9
3 *58:4 *58:5 3.68333
4 *58:3 *58:4 0.9
5 *209:Y *58:3 0.255
6 *207:A *209:Y 0.453333
*END

*D_NET *56 0.00555796

*CONN
*I *176:Y O *C 56 103 *L 0 *D INV1
*I *175:B I *C 80 109 *L 0.0123 *D NAND2X1

*CAP
1 *176:Y 0.00071034
2 *175:B 0.00041489
3 *56:2 0.00088265
4 *56:3 0.00121984
5 *56:4 0.00131322
6 *56:5 0.00042982
7 *56:6 0.0005872

*RES
1 *56:6 *175:B 0.425
2 *56:5 *56:6 0.9
3 *56:5 *56:4 0.283333
4 *56:3 *56:4 1.13333
5 *56:2 *56:3 0.9
6 *176:Y *56:2 0.708333
*END

*D_NET *111 0.0182968

*CONN
*I *247:Y O *C 82 172 *L 0 *D NOR2X1
*I *240:A I *C 46 213 *L 0.00857 *D INV1
*I *185:A I *C 80 205 *L 0.0113 *D NAND2X1

*CAP
1 *240:A 0.00043129
2 *247:Y 0.00018743
3 *185:A 0.00028718
4 *111:3 0.00333516
5 *111:4 0.00335984
6 *111:5 0.00044186
7 *111:6 0.00195454
8 *111:7 0.00195454
9 *111:8 0.00044186
10 *111:9 0.00032447
11 *111:10 0.00048621
12 *111:11 0.0008419
13 *111:12 0.00069997
14 *111:13 0.00117971
15 *111:14 0.00132164
16 *111:14 *50:3 0.00029976
17 *111:13 *50:4 0.00029976
18 *111:12 *50:3 0.00022482
19 *111:11 *50:4 0.00022482

*RES
1 *111:10 *240:A 0.453333
2 *111:14 *185:A 0.9
3 *111:10 *111:9 0.0566667
4 *111:13 *111:14 1.41667
5 *111:8 *111:9 0.283333
6 *111:13 *111:12 0.0283333
7 *111:7 *111:8 0.9
8 *111:11 *111:12 0.85
9 *111:6 *111:7 1.98333
10 *111:3 *247:Y 0.198333
11 *111:3 *111:11 0.9
12 *111:5 *111:6 0.9
13 *111:4 *111:3 3.17333
14 *111:4 *111:5 0.283333
*END

*D_NET *50 0.00719154

*CONN
*I *185:Y O *C 78 214 *L 0 *D NAND2X1
*I *182:A I *C 87 184 *L 0.0113 *D NAND2X1

*CAP
1 *185:Y 0.00047638
2 *182:A 0.00026955
3 *50:2 0.00064869
4 *50:3 0.00170165
5 *50:4 0.00174375
6 *50:5 0.00037854
7 *50:6 0.00041329
8 *50:7 0.00051053
9 *50:3 *111:14 0.00029976
10 *50:4 *111:13 0.00029976
11 *50:3 *111:12 0.00022482
12 *50:4 *111:11 0.00022482

*RES
1 *50:7 *182:A 0.283333
2 *50:6 *50:7 0.255
3 *50:5 *50:6 0.9
4 *50:4 *50:5 0.226667
5 *50:4 *50:3 1.98333
6 *50:2 *50:3 0.9
7 *185:Y *50:2 0.481667
*END

*D_NET *39 0.00733552

*CONN
*I *191:Y O *C 85 76 *L 0 *D NAND2X1
*I *190:A I *C 87 38 *L 0.00857 *D INV1

*CAP
1 *190:A 0.00027858
2 *191:Y 0.00047771
3 *39:2 0.00070987
4 *39:3 0.00065002
5 *39:4 0.0017833
6 *39:5 0.0017833
7 *39:6 0.0006036
8 *39:4 *125:8 0.00052457
9 *39:5 *125:9 0.00052457

*RES
1 *190:A *39:2 0.283333
2 *39:2 *39:6 0.453333
3 *39:5 *39:6 0.9
4 *39:5 *39:4 1.98333
5 *39:3 *39:4 0.9
6 *191:Y *39:3 0.481667
*END

*D_NET *4 0.00903911

*CONN
*P *4 O *C 90 252 *L 0
*I *159:Y O *C 97 214 *L 0 *D NAND2X1

*CAP
1 *159:Y 0.00068091
2 *4 0.00366838
3 *4:2 0.00085322
4 *4:3 0.0038366

*RES
1 *4:3 *4 4.06583
2 *4:2 *4:3 0.9
3 *4:2 *159:Y 0.651667
*END

*D_NET *57 0.0148804

*CONN
*I *175:Y O *C 82 106 *L 0 *D NAND2X1
*I *174:A I *C 118 67 *L 0.0113 *D NAND2X1

*CAP
1 *175:Y 0.00046473
2 *174:A 0.00218107
3 *57:2 0.00063704
4 *57:3 0.00279237
5 *57:4 0.00325512
6 *57:5 0.00092405
7 *57:6 0.0004613
8 *57:7 0.00235338
9 *57:5 *125:6 6.42e-06
10 *57:6 *125:7 6.42e-06
11 *57:3 *125:6 0.00089927
12 *57:4 *125:7 0.00089927

*RES
1 *57:7 *174:A 2.295
2 *57:6 *57:7 0.9
3 *57:6 *57:5 0.283333
4 *57:4 *57:5 0.68
5 *57:4 *57:3 3.4
6 *57:2 *57:3 0.9
7 *175:Y *57:2 0.481667
*END

*D_NET *125 0.0311684

*CONN
*P *125 I *C 87 0 *L 0
*I *267:B I *C 104 40 *L 0.0183 *D AOI22X1
*I *261:A I *C 68 115 *L 0.00859 *D NOR2X1
*I *193:A I *C 90 67 *L 0.0113 *D NAND2X1
*I *177:A I *C 87 115 *L 0.0113 *D NAND2X1

*CAP
1 *261:A 0.00025114
2 *193:A 0.00028718
3 *267:B 0.00067544
4 *125 0.00330709
5 *177:A 0.00028718
6 *125:5 0.00042345
7 *125:6 0.00516865
8 *125:7 0.00388041
9 *125:8 0.00285278
10 *125:9 0.00655424
11 *125:10 0.00143017
12 *125:11 0.00040483
13 *125:12 0.0011029
14 *125:13 0.00042982
15 *125:14 0.00084775
16 *125:15 0.00040483
17 *125:8 *39:4 0.00052457
18 *125:9 *39:5 0.00052457
19 *125:6 *57:5 6.42e-06
20 *125:7 *57:6 6.42e-06
21 *125:6 *57:3 0.00089927
22 *125:7 *57:4 0.00089927

*RES
1 *125:14 *267:B 0.651667
2 *125:13 *125:14 0.9
3 *125:12 *125:13 0.283333
4 *125 *125:9 3.49917
5 *125:9 *125:12 0.906667
6 *125:11 *193:A 0.9
7 *125:9 *125:8 2.83333
8 *125:8 *125:11 0.255
9 *125:7 *125:8 0.226667
10 *125:15 *177:A 0.9
11 *261:A *125:5 0.255
12 *125:7 *125:6 4.53333
13 *125:6 *125:15 0.255
14 *125:10 *125:5 0.9
15 *125:10 *125:6 1.36
*END

*D_NET *83 0.00392964

*CONN
*I *255:Y O *C 114 217 *L 0 *D NOR2X1
*I *159:A I *C 99 205 *L 0.0113 *D NAND2X1

*CAP
1 *255:Y 0.00024714
2 *159:A 0.00024277
3 *83:2 0.00041945
4 *83:3 0.00100952
5 *83:4 0.00113438
6 *83:5 0.0004613
7 *83:6 0.00041508

*RES
1 *159:A *83:6 0.255
2 *83:5 *83:6 0.9
3 *83:5 *83:4 0.283333
4 *83:4 *83:3 0.906667
5 *83:2 *83:3 0.9
6 *83:2 *255:Y 0.255
*END

*D_NET *2 0.00697485

*CONN
*P *2 O *C 104 252 *L 0
*I *158:Y O *C 104 217 *L 0 *D BUFX4

*CAP
1 *158:Y 0.00021044
2 *2 0.0028964
3 *2:2 0.00038275
4 *2:3 0.00037854
5 *2:4 0.00310672

*RES
1 *2:4 *2 3.21583
2 *2:3 *2:4 0.226667
3 *2:2 *2:3 0.9
4 *2:2 *158:Y 0.198333
*END

*D_NET *118 0.00813439

*CONN
*I *213:Y O *C 109 145 *L 0 *D NAND2X1
*I *205:A I *C 118 115 *L 0.0113 *D NAND2X1
*I *165:A I *C 126 136 *L 0.0113 *D NAND2X1

*CAP
1 *205:A 0.00028718
2 *213:Y 0.00065133
3 *165:A 0.00028718
4 *118:3 0.00179776
5 *118:4 0.00082364
6 *118:5 0.00035225
7 *118:6 0.00249712
8 *118:7 0.00097663
9 *118:8 0.0004613

*RES
1 *213:Y *118:4 0.651667
2 *118:8 *165:A 0.9
3 *118:5 *118:4 0.9
4 *118:7 *118:8 0.283333
5 *118:5 *118:6 0.198333
6 *118:6 *118:7 0.736667
7 *118:3 *205:A 0.9
8 *118:3 *118:6 1.7
*END

*D_NET *48 0.0153441

*CONN
*I *179:Y O *C 145 175 *L 0 *D NAND2X1
*I *178:A I *C 128 115 *L 0.0113 *D NAND2X1

*CAP
1 *179:Y 0.0015808
2 *178:A 0.00028718
3 *48:2 0.00175311
4 *48:3 0.00380589
5 *48:4 0.00366396
6 *48:5 0.00115636
7 *48:6 0.00129829
8 *48:3 *108:7 7.494e-05
9 *48:4 *108:8 7.494e-05
10 *48:5 *108:5 0.00037469
11 *48:6 *108:6 0.00037469
12 *48:5 *101:2 0.00044963
13 *48:6 *101:3 0.00044963

*RES
1 *48:6 *178:A 0.9
2 *48:6 *48:5 1.7
3 *48:5 *48:4 0.0283333
4 *48:4 *48:3 3.96667
5 *48:2 *48:3 0.9
6 *48:2 *179:Y 1.615
*END

*D_NET *101 0.00554772

*CONN
*I *263:D I *C 133 112 *L 0.0188 *D AOI22X1
*I *165:Y O *C 128 145 *L 0 *D NAND2X1

*CAP
1 *165:Y 0.00019183
2 *263:D 0.00021523
3 *101:2 0.00174486
4 *101:3 0.00174486
5 *101:4 0.00036414
6 *101:5 0.00038754
7 *101:2 *48:5 0.00044963
8 *101:3 *48:6 0.00044963

*RES
1 *101:5 *263:D 0.198333
2 *101:3 *101:5 0.9
3 *101:3 *101:2 1.98333
4 *101:4 *101:2 0.9
5 *165:Y *101:4 0.198333
*END

*D_NET *28 0.00755619

*CONN
*I *241:Y O *C 130 79 *L 0 *D INV1
*I *187:B I *C 130 40 *L 0.0123 *D NAND2X1
*I *174:B I *C 123 73 *L 0.0123 *D NAND2X1

*CAP
1 *241:Y 0.00066494
2 *174:B 0.000195
3 *187:B 0.00028718
4 *28:3 0.00074266
5 *28:4 0.00046455
6 *28:5 0.00036414
7 *28:6 0.00223483
8 *28:7 0.00225064
9 *28:8 0.00035225

*RES
1 *28:8 *187:B 0.9
2 *28:8 *28:7 0.198333
3 *28:7 *28:6 2.26667
4 *28:5 *28:6 0.9
5 *174:B *28:4 0.198333
6 *241:Y *28:5 0.198333
7 *28:3 *28:4 0.283333
8 *28:3 *241:Y 0.481667
*END

*D_NET *49 0.0138599

*CONN
*I *228:A I *C 167 75 *L 0.00857 *D INV1
*I *178:Y O *C 126 106 *L 0 *D NAND2X1

*CAP
1 *178:Y 0.00049035
2 *228:A 0.00027405
3 *49:2 0.00066266
4 *49:3 0.00204269
5 *49:4 0.00208479
6 *49:5 0.00099261
7 *49:6 0.00095051
8 *49:7 0.00302244
9 *49:8 0.00295795
10 *49:9 0.00038187

*RES
1 *49:9 *228:A 0.283333
2 *49:9 *49:8 0.113333
3 *49:7 *49:8 2.94667
4 *49:6 *49:7 0.9
5 *49:6 *49:5 0.85
6 *49:4 *49:5 0.226667
7 *49:4 *49:3 1.98333
8 *49:2 *49:3 0.9
9 *178:Y *49:2 0.481667
*END

*D_NET *6 0.0189931

*CONN
*P *6 O *C 138 252 *L 0
*I *157:Y O *C 138 145 *L 0 *D NAND2X1

*CAP
1 *6 0.00896835
2 *157:Y 0.00028718
3 *6:2 0.00899464
4 *6:3 0.00030048
5 *6:4 0.00044241

*RES
1 *6:2 *6 9.7325
2 *6:2 *6:3 0.0283333
3 *6:4 *6:3 0.283333
4 *157:Y *6:4 0.9
*END

*D_NET *139 0.0105249

*CONN
*P *139 I *C 152 252 *L 0
*I *162:A I *C 150 205 *L 0.0113 *D NAND2X1

*CAP
1 *139 0.0011621
2 *162:A 0.00026459
3 *139:2 0.00137242
4 *139:3 0.00263055
5 *139:4 0.00258845
6 *139:5 0.00039861
7 *139:6 0.00103496
8 *139:7 0.00107325

*RES
1 *162:A *139:7 0.255
2 *139:7 *139:6 0.85
3 *139:5 *139:6 0.226667
4 *139:4 *139:5 0.9
5 *139:4 *139:3 2.26667
6 *139:3 *139:2 0.226667
7 *139:2 *139 1.2325
*END

*D_NET *43 0.0098248

*CONN
*I *196:Y O *C 169 106 *L 0 *D NAND2X1
*I *194:A I *C 174 67 *L 0.0113 *D NAND2X1

*CAP
1 *196:Y 0.00018743
2 *194:A 0.00026748
3 *43:2 0.00035974
4 *43:3 0.00428518
5 *43:4 0.00428518
6 *43:5 0.00043979

*RES
1 *43:5 *194:A 0.255
2 *43:4 *43:5 0.9
3 *43:4 *43:3 4.25
4 *43:2 *43:3 0.9
5 *196:Y *43:2 0.198333
*END

*D_NET *15 0.0140375

*CONN
*P *15 O *C 174 252 *L 0
*I *236:Y O *C 169 175 *L 0 *D NAND2X1

*CAP
1 *236:Y 0.00041726
2 *15 0.00450778
3 *15:2 0.00058957
4 *15:3 0.004676
5 *15 *5:2 0.00157372
6 *15:3 *5:3 0.00157372
7 *15 *3 0.00034971
8 *15:3 *3:4 0.00034971

*RES
1 *15:3 *15 6.04917
2 *15:2 *15:3 0.9
3 *236:Y *15:2 0.425
*END

*D_NET *114 0.00702376

*CONN
*I *266:B I *C 171 40 *L 0.00962 *D NOR2X1
*I *228:Y O *C 169 79 *L 0 *D INV1

*CAP
1 *228:Y 0.00044286
2 *266:B 0.0002405
3 *114:2 0.00061517
4 *114:3 0.00037854
5 *114:4 0.00202182
6 *114:5 0.00197972
7 *114:6 0.00036893
8 *114:7 0.00046617
9 *114:8 0.00051005

*RES
1 *266:B *114:8 0.226667
2 *114:8 *114:7 0.283333
3 *114:7 *114:6 0.198333
4 *114:5 *114:6 0.9
5 *114:5 *114:4 1.98333
6 *114:3 *114:4 0.226667
7 *114:2 *114:3 0.9
8 *228:Y *114:2 0.425
*END

*D_NET *5 0.0264268

*CONN
*P *5 O *C 164 252 *L 0
*I *237:Y O *C 169 145 *L 0 *D NAND2X1

*CAP
1 *237:Y 0.00019222
2 *5 9.812e-05
3 *5:2 0.00763478
4 *5:3 0.00788721
5 *5:4 0.00036453
6 *5:5 0.00098396
7 *5:6 0.00123639
8 *5:7 0.00137487
9 *5:8 0.00137487
10 *5:9 0.00026634
11 *5:2 *92:3 0.00014988
12 *5:3 *92:4 0.00014988
13 *5:2 *92:4 0.00074939
14 *5:3 *92:5 0.00074939
15 *5:6 *92:4 1.097e-05
16 *5:5 *92:5 1.097e-05
17 *5:6 *92:6 2.278e-05
18 *5:5 *92:7 2.278e-05
19 *5:2 *15 0.00157372
20 *5:3 *15:3 0.00157372

*RES
1 *5:9 *5 0.0991667
2 *5:8 *5:9 0.9
3 *5:8 *5:7 1.13333
4 *5:2 *5:7 0.9
5 *5:3 *5:2 9.63333
6 *5:6 *5:3 0.453333
7 *5:5 *5:6 0.85
8 *5:4 *5:5 0.9
9 *237:Y *5:4 0.198333
*END

*D_NET *92 0.0135446

*CONN
*I *180:A I *C 188 184 *L 0.0113 *D NAND2X1
*I *150:Y O *C 182 181 *L 0 *D INVX8
*I *149:A I *C 178 136 *L 0.0221 *D NAND2X2

*CAP
1 *180:A 0.00028718
2 *150:Y 0.00029455
3 *149:A 0.00027852
4 *92:3 0.00131646
5 *92:4 0.00293896
6 *92:5 0.00264434
7 *92:6 0.00100359
8 *92:7 0.00096149
9 *92:8 0.00103581
10 *92:9 0.00046686
11 *92:10 0.00045083
12 *92:3 *5:2 0.00014988
13 *92:4 *5:3 0.00014988
14 *92:4 *5:2 0.00074939
15 *92:5 *5:3 0.00074939
16 *92:4 *5:6 1.097e-05
17 *92:5 *5:5 1.097e-05
18 *92:6 *5:6 2.278e-05
19 *92:7 *5:5 2.278e-05

*RES
1 *92:10 *149:A 0.255
2 *92:7 *92:10 0.9
3 *92:7 *92:6 0.85
4 *92:6 *92:5 0.226667
5 *92:9 *150:Y 0.311667
6 *92:5 *92:4 3.11667
7 *92:4 *92:9 0.9
8 *92:8 *180:A 0.9
9 *92:4 *92:3 0.566667
10 *92:3 *92:8 0.935
*END

*D_NET *119 0.00470074

*CONN
*I *245:A I *C 190 46 *L 0.00859 *D NOR2X1
*I *229:Y O *C 186 79 *L 0 *D INV1

*CAP
1 *245:A 0.00025327
2 *229:Y 0.00019183
3 *119:2 0.00042558
4 *119:3 0.00046138
5 *119:4 0.00044186
6 *119:5 0.00146341
7 *119:6 0.00146341

*RES
1 *119:2 *245:A 0.255
2 *119:6 *119:2 0.9
3 *119:6 *119:5 1.41667
4 *119:4 *119:5 0.9
5 *119:4 *119:3 0.283333
6 *229:Y *119:3 0.198333
*END

*D_NET *105 0.047753

*CONN
*I *244:A I *C 104 136 *L 0.00859 *D NOR2X1
*I *230:A I *C 87 213 *L 0.00857 *D INV1
*I *220:Y O *C 210 175 *L 0 *D NAND2X1
*I *159:B I *C 94 211 *L 0.0123 *D NAND2X1
*I *157:B I *C 140 142 *L 0.0123 *D NAND2X1

*CAP
1 *159:B 0.00021662
2 *230:A 0.00027405
3 *244:A 0.00028718
4 *220:Y 0.00055674
5 *157:B 0.00018882
6 *105:5 0.00538885
7 *105:6 0.00665882
8 *105:7 0.00052164
9 *105:8 0.00040931
10 *105:9 0.00153635
11 *105:10 0.00153635
12 *105:11 0.00079919
13 *105:12 0.00043578
14 *105:13 0.00424573
15 *105:14 0.00223923
16 *105:15 0.00056258
17 *105:16 0.00072905
18 *105:17 0.00195042
19 *105:18 0.00195042
20 *105:19 0.00582984
21 *105:20 0.00978839
22 *105:21 0.00036113
23 *105:17 *85:3 0.00052457
24 *105:18 *85:4 0.00052457
25 *220:Y *220:B 5.539e-05
26 *105:16 *85:5 5.539e-05
27 *220:Y *85:5 6.331e-05
28 *105:16 *180:B 6.331e-05

*RES
1 *105:16 *220:Y 0.651667
2 *157:B *105:21 0.198333
3 *105:17 *105:16 0.9
4 *105:10 *105:21 0.9
5 *105:18 *105:17 2.26667
6 *105:10 *105:9 1.41667
7 *105:19 *105:18 0.9
8 *105:15 *244:A 0.9
9 *105:20 *105:9 0.9
10 *105:20 *105:19 5.66667
11 *105:14 *105:15 0.425
12 *105:13 *105:20 4.08
13 *105:14 *105:6 1.98333
14 *105:6 *105:13 0.9
15 *230:A *105:12 0.283333
16 *105:6 *105:5 5.1
17 *105:8 *105:12 0.17
18 *105:11 *105:5 0.68
19 *105:8 *105:7 0.226667
20 *105:7 *105:11 0.9
21 *105:7 *159:B 0.198333
*END

*D_NET *42 0.00830804

*CONN
*I *199:Y O *C 219 79 *L 0 *D INV1
*I *198:A I *C 212 115 *L 0.0113 *D NAND2X1

*CAP
1 *199:Y 0.00021044
2 *198:A 0.00045857
3 *42:2 0.00038275
4 *42:3 0.0033127
5 *42:4 0.0033127
6 *42:5 0.00063088

*RES
1 *198:A *42:5 0.481667
2 *42:4 *42:5 0.9
3 *42:3 *42:4 3.4
4 *42:2 *42:3 0.9
5 *42:2 *199:Y 0.198333
*END

*D_NET *131 0.017657

*CONN
*P *131 O *C 212 252 *L 0
*I *249:Y O *C 226 172 *L 0 *D NOR2X1
*I *227:A I *C 214 213 *L 0.00857 *D INV1

*CAP
1 *227:A 0.00027405
2 *249:Y 0.00043242
3 *131 0.00296922
4 *131:3 0.00044636
5 *131:4 0.00060473
6 *131:5 0.00058887
7 *131:6 0.00332339
8 *131:7 0.00333371
9 *131:8 0.00079555
10 *131:9 0.00338987
11 *131:7 *90:5 0.00044963
12 *131:6 *90:6 0.00044963
13 *131:7 *90:7 7.494e-05
14 *131:6 *90:8 7.494e-05
15 *131:7 *90:9 0.00022482
16 *131:6 *90:10 0.00022482

*RES
1 *131:4 *249:Y 0.425
2 *131:5 *131:4 0.9
3 *131:9 *131 3.21583
4 *131:6 *131:5 0.453333