// Generated for: spectre
// Generated on: Nov  1 21:51:17 2014
// Design library name: TestCharacterize
// Design cell name: YSDFlipFlopAsyncReset
// Design view name: schematic
simulator lang=spectre
global 0 vdd!
