simulator lang=spectre
include "ami06N.scs"
include "ami06P.scs"
