// Generated for: spectre
// Generated on: Oct 29 20:27:49 2014
// Design library name: Lib6710_08
// Design cell name: Allparts
// Design view name: schematic
simulator lang=spectre
global 0 vdd!
