// Generated for: spectre
// Generated on: Nov 18 13:22:34 2014
// Design library name: Lib6710_08
// Design cell name: Allparts
// Design view name: schematic
simulator lang=spectre
global 0 vdd!
