// Generated for: spectre
// Generated on: Nov 20 20:27:56 2014
// Design library name: Lib6710_08
// Design cell name: Allparts
// Design view name: schematic
simulator lang=spectre
global 0 vdd!
